ver_1.2
     RDKit          2D

  0  0  0  0  0  0  0  0  0  0999 V2000
M  END
>  <ref_url>  (1) 
https://pubs.acs.org/doi/10.1021/acs.jcim.3c00276?fig=tgr1&ref=pdf

>  <submitter_name>  (1) 
Steph Wills

>  <submitter_institution>  (1) 
University of Oxford

>  <submitter_email>  (1) 
stephanie.wills@balliol.ox.ac.uk

>  <generation_date>  (1) 
2024-02-23

>  <method>  (1) 
FragNetPipes

>  <original SMILES>  (1) 
SMILES

>  <original_name>  (1) 
a name

>  <ref_mols>  (1) 
ref fragments

>  <ref_pdb>  (1) 
ref pdb

$$$$
x1097_1A-x1140_0A_616_B1X
     RDKit          3D

 22 24  0  0  0  0  0  0  0  0999 V2000
    9.8130    9.2750   23.1740 N   0  0  0  0  0  0  0  0  0  0  0  0
    9.2010   10.3160   23.8890 C   0  0  0  0  0  0  0  0  0  0  0  0
    8.0940    9.9880   24.5780 N   0  0  0  0  0  0  0  0  0  0  0  0
    7.4520   10.9090   25.2930 C   0  0  0  0  0  0  0  0  0  0  0  0
    6.3210   10.5520   26.0190 C   0  0  0  0  0  0  0  0  0  0  0  0
    5.5770   11.5110   26.8240 C   0  0  0  0  0  0  0  0  0  0  0  0
    6.0330   12.8290   26.8460 C   0  0  0  0  0  0  0  0  0  0  0  0
    7.1690   13.1960   26.1170 C   0  0  0  0  0  0  0  0  0  0  0  0
    7.8850   12.2480   25.3440 C   0  0  0  0  0  0  0  0  0  0  0  0
    9.0480   12.5950   24.6140 C   0  0  0  0  0  0  0  0  0  0  0  0
    9.7330   11.6140   23.8840 C   0  0  0  0  0  0  0  0  0  0  0  0
   11.0370   11.8110   23.1150 C   0  0  0  0  0  0  0  0  0  0  0  0
   11.3800   10.8850   22.4070 O   0  0  0  0  0  0  0  0  0  0  0  0
   11.9020   12.9210   23.3030 N   0  0  0  0  0  0  0  0  0  0  0  0
   13.4110   12.7370   23.2470 C   0  0  1  0  0  0  0  0  0  0  0  0
   13.9880   13.6700   22.4020 C   0  0  0  0  0  0  0  0  0  0  0  0
   15.4000   13.4990   22.4800 O   0  0  0  0  0  0  0  0  0  0  0  0
   14.0040   12.7830   24.6940 C   0  0  0  0  0  0  0  0  0  0  0  0
   15.5040   12.6060   25.0400 C   0  0  0  0  0  0  0  0  0  0  0  0
   15.7040   13.0430   26.5200 C   0  0  0  0  0  0  0  0  0  0  0  0
   15.7930   11.6450   26.8800 C   0  0  0  0  0  0  0  0  0  0  0  0
   16.0950   11.1530   25.4890 C   0  0  0  0  0  0  0  0  0  0  0  0
  1  2  1  0
  2  3  2  0
  3  4  1  0
  4  5  2  0
  5  6  1  0
  6  7  2  0
  7  8  1  0
  8  9  2  0
  9 10  1  0
 10 11  2  0
 11 12  1  0
 12 13  2  0
 12 14  1  0
 14 15  1  0
 15 16  1  6
 16 17  1  0
 15 18  1  0
 18 19  1  0
 19 20  1  0
 20 21  1  0
 21 22  1  0
 11  2  1  0
 22 19  1  0
  9  4  1  0
A    1
 N1 
A    2
 C1 
A    3
 N2 
A    4
 C2 
A    5
 C3 
A    6
 C4 
A    7
 C5 
A    8
 C6 
A    9
 C7 
A   10
 C8 
A   11
 C9 
A   12
 C10
A   13
 O1 
A   14
 N3 
A   15
 C11
A   16
 C12
A   17
 O2 
A   18
 C13
A   19
 C14
A   20
 C15
A   21
 C16
A   22
 C17
M  END
>  <similarity>  (2) 
1.0

>  <smiles>  (2) 
Nc1nc2ccccc2cc1C(=O)NC(CO)CC1CCC1

>  <cmpd_id>  (2) 
ENAMINE:Z4127959569

>  <used_subnode>  (2) 
Nc1ccc2ccccc2n1

>  <used_synthon>  (2) 
[Xe]C1CCC1

>  <ref_subnode>  (2) 
Nc1ccc2ccccc2n1

>  <ref_synthon>  (2) 
[Xe]N1CCCC1

>  <fragmentA>  (2) 
x1097_1A

>  <fragmentB>  (2) 
x1140_0A

>  <HA>  (2) 
22

>  <HBD>  (2) 
3

>  <HBA>  (2) 
4

>  <MW>  (2) 
299.163376912

>  <TPSA>  (2) 
88.24

>  <LogP>  (2) 
2.0979

>  <RBs>  (2) 
5

>  <G_bound>  (2) 
-2.0277626622529583

>  <G_unbound>  (2) 
1.046558731529349

>  <deltaG>  (2) 
-3.0743213937823075

>  <comRMSD>  (2) 
1.0909330744532773

>  <substructure_overlap_check>  (2) 
True

>  <sucos>  (2) 
0.5511387935195954

>  <interactions>  (2) 
Hydrophobic_PRO-107,Hydrophobic_TYR-89,HBDonor_ASN-19,Hydrophobic_LEU-22,Hydrophobic_CYS-110,HBDonor_SER-105

>  <total_num_ints>  (2) 
6

>  <total_num_ints_nonhyd>  (2) 
2

>  <num_uniq_frag_ints>  (2) 
5

>  <num_repl_uniq_ints>  (2) 
3

>  <num_uniq_ints_lost>  (2) 
2

>  <num_new_uniq_ints>  (2) 
3

>  <int_check>  (2) 
True

>  <original SMILES>  (2) 
Nc1nc2ccccc2cc1C(=O)NC(CO)CC1CCC1

>  <original_name>  (2) 
x1097_1A-x1140_0A_616_B1X

>  <ref_mols>  (2) 
Ax1097a,Ax1140a

>  <ref_pdb>  (2) 
Ax0310a

>  <rationale>  (2) 
FragNet: 1 round bioisosteric merging incl Nc1ccc2ccccc2n1 and [Xe]C1CCC1 replacing [Xe]N1CCCC1

$$$$
x0528_0A-x1097_1A_626_PXX
     RDKit          3D

 24 26  0  0  0  0  0  0  0  0999 V2000
   12.5250   14.2610   19.7020 C   0  0  0  0  0  0  0  0  0  0  0  0
   11.0760   14.4530   19.6680 C   0  0  0  0  0  0  0  0  0  0  0  0
   10.5510   14.1170   20.9820 N   0  0  0  0  0  0  0  0  0  0  0  0
    9.3060   14.5230   21.3220 C   0  0  0  0  0  0  0  0  0  0  0  0
    8.7220   15.4850   20.8190 O   0  0  0  0  0  0  0  0  0  0  0  0
    8.6170   13.7330   22.3830 C   0  0  0  0  0  0  0  0  0  0  0  0
    7.4770   14.0370   22.7340 O   0  0  0  0  0  0  0  0  0  0  0  0
    9.4020   12.6760   22.8470 N   0  0  0  0  0  0  0  0  0  0  0  0
    8.7500   11.9060   23.7880 C   0  0  0  0  0  0  0  0  0  0  0  0
    8.6500   10.4320   24.0520 C   0  0  0  0  0  0  0  0  0  0  0  0
    7.8650    9.9200   25.0310 N   0  0  0  0  0  0  0  0  0  0  0  0
    7.1620   10.7970   25.7940 C   0  0  0  0  0  0  0  0  0  0  0  0
    6.2630   10.3100   26.8730 C   0  0  0  0  0  0  0  0  0  0  0  0
    5.5410   11.3490   27.6590 C   0  0  0  0  0  0  0  0  0  0  0  0
    5.6920   12.6930   27.4100 C   0  0  0  0  0  0  0  0  0  0  0  0
    6.5300   13.1040   26.3990 C   0  0  0  0  0  0  0  0  0  0  0  0
    7.2400   12.1920   25.6120 C   0  0  0  0  0  0  0  0  0  0  0  0
    8.0260   12.7020   24.6240 C   0  0  0  0  0  0  0  0  0  0  0  0
   11.5700   14.0880   22.0190 C   0  0  2  0  0  0  0  0  0  0  0  0
   11.4320   13.5970   23.4540 C   0  0  0  0  0  0  0  0  0  0  0  0
   12.7550   14.1650   23.9460 C   0  0  0  0  0  0  0  0  0  0  0  0
   12.7680   15.4600   23.3640 N   0  0  0  0  0  0  0  0  0  0  0  0
   11.9100   15.5060   22.3170 C   0  0  0  0  0  0  0  0  0  0  0  0
   11.4980   16.4760   21.7630 O   0  0  0  0  0  0  0  0  0  0  0  0
  1  2  1  0
  2  3  1  0
  3  4  1  0
  4  5  2  0
  4  6  1  0
  6  7  2  0
  6  8  1  0
  8  9  1  0
  9 10  2  0
 10 11  1  0
 11 12  2  0
 12 13  1  0
 13 14  2  0
 14 15  1  0
 15 16  2  0
 16 17  1  0
 17 18  2  0
 19  3  1  6
 19 20  1  0
 20 21  1  0
 21 22  1  0
 22 23  1  0
 23 24  2  0
 18  9  1  0
 23 19  1  0
 17 12  1  0
A    1
 C1 
A    2
 C2 
A    3
 N1 
A    4
 C3 
A    5
 O1 
A    6
 C4 
A    7
 O2 
A    8
 N2 
A    9
 C5 
A   10
 C6 
A   11
 N3 
A   12
 C7 
A   13
 C8 
A   14
 C9 
A   15
 C10
A   16
 C11
A   17
 C12
A   18
 C13
A   19
 C14
A   20
 C15
A   21
 C16
A   22
 N4 
A   23
 C17
A   24
 O3 
M  END
>  <similarity>  (3) 
NA

>  <smiles>  (3) 
CCN(C(=O)C(=O)Nc1cnc2ccccc2c1)C1CCNC1=O

>  <cmpd_id>  (3) 
ENAMINE:Z1999083624

>  <used_subnode>  (3) 
NA

>  <used_synthon>  (3) 
NA

>  <ref_subnode>  (3) 
O=C1CCCN1

>  <ref_synthon>  (3) 
[Xe]c1cnc2ccccc2c1

>  <fragmentA>  (3) 
x0528_0A

>  <fragmentB>  (3) 
x1097_1A

>  <HA>  (3) 
24

>  <HBD>  (3) 
2

>  <HBA>  (3) 
4

>  <MW>  (3) 
326.13789043599996

>  <TPSA>  (3) 
91.4

>  <LogP>  (3) 
0.9102999999999992

>  <RBs>  (3) 
3

>  <G_bound>  (3) 
-3.063855041309941

>  <G_unbound>  (3) 
1.2801876886924344

>  <deltaG>  (3) 
-4.344042730002375

>  <comRMSD>  (3) 
0.9502878608856543

>  <substructure_overlap_check>  (3) 
True

>  <sucos>  (3) 
0.5652431587747034

>  <interactions>  (3) 
Hydrophobic_PRO-107,HBAcceptor_SER-87,Hydrophobic_TYR-90,Hydrophobic_HIS-21,Hydrophobic_ASP-39,HBDonor_SER-125,HBDonor_GLU-88

>  <total_num_ints>  (3) 
7

>  <total_num_ints_nonhyd>  (3) 
3

>  <num_uniq_frag_ints>  (3) 
4

>  <num_repl_uniq_ints>  (3) 
2

>  <num_uniq_ints_lost>  (3) 
2

>  <num_new_uniq_ints>  (3) 
5

>  <int_check>  (3) 
True

>  <original SMILES>  (3) 
CCN(C(=O)C(=O)Nc1cnc2ccccc2c1)C1CCNC1=O

>  <original_name>  (3) 
x0528_0A-x1097_1A_626_PXX

>  <ref_mols>  (3) 
Ax0528a,Ax1097a

>  <ref_pdb>  (3) 
Ax0310a

>  <rationale>  (3) 
FragNet: perfect merge incl O=C1CCCN1,[Xe]c1cnc2ccccc2c1

$$$$
x1097_1A-x0528_0A_550_B1X_rgrp-0
     RDKit          3D

 19 21  0  0  0  0  0  0  0  0999 V2000
   10.0400    8.7550   23.0530 C   0  0  0  0  0  0  0  0  0  0  0  0
    9.4390   10.0020   23.6740 C   0  0  0  0  0  0  0  0  0  0  0  0
    8.3240    9.8350   24.4090 N   0  0  0  0  0  0  0  0  0  0  0  0
    7.7860   10.9240   24.9850 C   0  0  0  0  0  0  0  0  0  0  0  0
    6.6000   10.7080   25.8090 C   0  0  0  0  0  0  0  0  0  0  0  0
    5.9870   11.7880   26.4360 C   0  0  0  0  0  0  0  0  0  0  0  0
    6.5650   13.1480   26.2410 C   0  0  0  0  0  0  0  0  0  0  0  0
    7.6940   13.3210   25.4500 C   0  0  0  0  0  0  0  0  0  0  0  0
    8.3290   12.2390   24.8180 C   0  0  0  0  0  0  0  0  0  0  0  0
    9.4870   12.3870   24.0300 C   0  0  0  0  0  0  0  0  0  0  0  0
   10.0620   13.5980   23.8050 N   0  0  0  0  0  0  0  0  0  0  0  0
   11.4240   13.8040   24.3520 C   0  0  0  0  0  0  0  0  0  0  0  0
   12.1850   14.9010   23.6530 C   0  0  0  0  0  0  0  0  0  0  0  0
   11.9950   14.9020   22.2230 N   0  0  0  0  0  0  0  0  0  0  0  0
   10.7270   14.8130   21.7470 C   0  0  0  0  0  0  0  0  0  0  0  0
   10.3600   15.5410   20.8200 O   0  0  0  0  0  0  0  0  0  0  0  0
    9.8640   13.8930   22.3530 C   0  0  0  0  0  0  0  0  0  0  0  0
   10.0500   11.2270   23.4770 C   0  0  0  0  0  0  0  0  0  0  0  0
   11.3220   11.2310   22.7010 C   0  0  0  0  0  0  0  0  0  0  0  0
  1  2  1  0
  2  3  2  0
  3  4  1  0
  4  5  2  0
  5  6  1  0
  6  7  2  0
  7  8  1  0
  8  9  2  0
  9 10  1  0
 10 11  1  0
 11 12  1  0
 12 13  1  0
 13 14  1  0
 14 15  1  0
 15 16  2  0
 15 17  1  0
 10 18  2  0
 18 19  1  0
 18  2  1  0
  9  4  1  0
 17 11  1  0
A    1
 C1 
A    2
 C2 
A    3
 N1 
A    4
 C3 
A    5
 C4 
A    6
 C5 
A    7
 C6 
A    8
 C7 
A    9
 C8 
A   10
 C9 
A   11
 N2 
A   12
 C10
A   13
 C11
A   14
 N3 
A   15
 C12
A   16
 O1 
A   17
 C13
A   18
 C14
A   19
 C15
M  END
>  <similarity>  (4) 
1.0

>  <smiles>  (4) 
Cc1nc2ccccc2c(N2CCNC(=O)C2)c1C

>  <cmpd_id>  (4) 
ENAMINE:Z1652084917

>  <used_subnode>  (4) 
c1ccc2ncccc2c1

>  <used_synthon>  (4) 
O=C1CN([Xe])CCN1

>  <ref_subnode>  (4) 
c1ccc2ncccc2c1

>  <ref_synthon>  (4) 
O=C1NCCC1[Xe]

>  <fragmentA>  (4) 
x1097_1A

>  <fragmentB>  (4) 
x0528_0A

>  <HA>  (4) 
19

>  <HBD>  (4) 
1

>  <HBA>  (4) 
3

>  <MW>  (4) 
255.137162164

>  <TPSA>  (4) 
45.230000000000004

>  <LogP>  (4) 
1.7878399999999999

>  <RBs>  (4) 
1

>  <G_bound>  (4) 
-8.622395805290136

>  <G_unbound>  (4) 
0.12534390234474618

>  <deltaG>  (4) 
-8.747739707634882

>  <comRMSD>  (4) 
0.27869012223174405

>  <substructure_overlap_check>  (4) 
True

>  <sucos>  (4) 
0.5670583304352298

>  <interactions>  (4) 
HBAcceptor_SER-87,Hydrophobic_CYS-110,Hydrophobic_PRO-107,Hydrophobic_VAL-124,Hydrophobic_ASP-109,HBAcceptor_SER-105

>  <total_num_ints>  (4) 
6

>  <total_num_ints_nonhyd>  (4) 
2

>  <num_uniq_frag_ints>  (4) 
4

>  <num_repl_uniq_ints>  (4) 
2

>  <num_uniq_ints_lost>  (4) 
2

>  <num_new_uniq_ints>  (4) 
4

>  <int_check>  (4) 
True

>  <original SMILES>  (4) 
Cc1nc2ccccc2c(N2CCNC(=O)C2)c1C

>  <original_name>  (4) 
x1097_1A-x0528_0A_550_B1X_rgrp-0

>  <ref_mols>  (4) 
Ax1097a,Ax0528a

>  <ref_pdb>  (4) 
Ax0310a

>  <rationale>  (4) 
FragNet: 1 round bioisosteric merging incl c1ccc2ncccc2c1 and O=C1CN([Xe])CCN1 replacing O=C1NCCC1[Xe]

$$$$
x1097_1A-x0528_0A_283_B1X_rgrp-0
     RDKit          3D

 21 23  0  0  0  0  0  0  0  0999 V2000
    5.0100   10.1390   27.8910 C   0  0  0  0  0  0  0  0  0  0  0  0
    5.1880   11.4670   27.3990 O   0  0  0  0  0  0  0  0  0  0  0  0
    6.2410   11.6480   26.5370 C   0  0  0  0  0  0  0  0  0  0  0  0
    6.7730   10.5850   25.8430 C   0  0  0  0  0  0  0  0  0  0  0  0
    7.8590   10.9120   24.9940 C   0  0  0  0  0  0  0  0  0  0  0  0
    8.2960    9.6590   24.3480 N   0  0  0  0  0  0  0  0  0  0  0  0
    9.4170    9.8130   23.4230 C   0  0  0  0  0  0  0  0  0  0  0  0
    9.9530   11.1350   23.2570 C   0  0  0  0  0  0  0  0  0  0  0  0
    9.5090   12.2960   23.9020 C   0  0  0  0  0  0  0  0  0  0  0  0
   10.2020   13.4900   23.6030 N   0  0  0  0  0  0  0  0  0  0  0  0
    9.8420   13.9740   22.2520 C   0  0  0  0  0  0  0  0  0  0  0  0
   10.6840   14.9420   21.7420 C   0  0  0  0  0  0  0  0  0  0  0  0
   10.5190   15.3990   20.6140 O   0  0  0  0  0  0  0  0  0  0  0  0
   11.7130   15.4390   22.5260 N   0  0  0  0  0  0  0  0  0  0  0  0
   12.2760   14.6290   23.6100 C   0  0  1  0  0  0  0  0  0  0  0  0
   11.9610   15.1280   25.0170 C   0  0  0  0  0  0  0  0  0  0  0  0
   11.6540   13.2590   23.5500 C   0  0  0  0  0  0  0  0  0  0  0  0
    8.4060   12.1890   24.8130 C   0  0  0  0  0  0  0  0  0  0  0  0
    7.8150   13.2320   25.5500 C   0  0  0  0  0  0  0  0  0  0  0  0
    6.7420   12.9520   26.4040 C   0  0  0  0  0  0  0  0  0  0  0  0
    5.9790   14.3880   27.3850 Br  0  0  0  0  0  0  0  0  0  0  0  0
  1  2  1  0
  2  3  1  0
  3  4  2  0
  4  5  1  0
  5  6  2  0
  6  7  1  0
  7  8  2  0
  8  9  1  0
  9 10  1  0
 10 11  1  0
 11 12  1  0
 12 13  2  0
 12 14  1  0
 14 15  1  0
 15 16  1  1
 15 17  1  0
  9 18  2  0
 18 19  1  0
 19 20  2  0
 20 21  1  0
 20  3  1  0
 18  5  1  0
 17 10  1  0
A    1
 C1 
A    2
 O1 
A    3
 C2 
A    4
 C3 
A    5
 C4 
A    6
 N1 
A    7
 C5 
A    8
 C6 
A    9
 C7 
A   10
 N2 
A   11
 C8 
A   12
 C9 
A   13
 O2 
A   14
 N3 
A   15
 C10
A   16
 C11
A   17
 C12
A   18
 C13
A   19
 C14
A   20
 C15
A   21
BR1 
M  END
>  <similarity>  (5) 
1.0

>  <smiles>  (5) 
COc1cc2nccc(N3CC(=O)NC(C)C3)c2cc1Br

>  <cmpd_id>  (5) 
ENAMINE:Z2409655788

>  <used_subnode>  (5) 
c1ccc2ncccc2c1

>  <used_synthon>  (5) 
O=C1CN([Xe])CCN1

>  <ref_subnode>  (5) 
c1ccc2ncccc2c1

>  <ref_synthon>  (5) 
O=C1NCCC1[Xe]

>  <fragmentA>  (5) 
x1097_1A

>  <fragmentB>  (5) 
x0528_0A

>  <HA>  (5) 
21

>  <HBD>  (5) 
1

>  <HBA>  (5) 
4

>  <MW>  (5) 
349.042588852

>  <TPSA>  (5) 
54.46

>  <LogP>  (5) 
2.3306000000000004

>  <RBs>  (5) 
2

>  <G_bound>  (5) 
-7.5118381917988675

>  <G_unbound>  (5) 
0.3887112098395281

>  <deltaG>  (5) 
-7.900549401638395

>  <comRMSD>  (5) 
0.32427221853570076

>  <substructure_overlap_check>  (5) 
True

>  <sucos>  (5) 
0.5687662600197287

>  <interactions>  (5) 
HBDonor_SER-87,Hydrophobic_GLU-88,Hydrophobic_PRO-107,Hydrophobic_TYR-89,HBAcceptor_SER-105

>  <total_num_ints>  (5) 
5

>  <total_num_ints_nonhyd>  (5) 
2

>  <num_uniq_frag_ints>  (5) 
4

>  <num_repl_uniq_ints>  (5) 
2

>  <num_uniq_ints_lost>  (5) 
2

>  <num_new_uniq_ints>  (5) 
3

>  <int_check>  (5) 
True

>  <original SMILES>  (5) 
COc1cc2nccc(N3CC(=O)NC(C)C3)c2cc1Br

>  <original_name>  (5) 
x1097_1A-x0528_0A_283_B1X_rgrp-0

>  <ref_mols>  (5) 
Ax1097a,Ax0528a

>  <ref_pdb>  (5) 
Ax0310a

>  <rationale>  (5) 
FragNet: 1 round bioisosteric merging incl c1ccc2ncccc2c1 and O=C1CN([Xe])CCN1 replacing O=C1NCCC1[Xe]

$$$$
x1097_1A-x1140_0A_207_PXX
     RDKit          3D

 22 24  0  0  0  0  0  0  0  0999 V2000
   13.0850   14.5420   24.8750 C   0  0  0  0  0  0  0  0  0  0  0  0
   13.4220   13.2130   24.2720 C   0  0  1  0  0  0  0  0  0  0  0  0
   12.6040   13.0170   22.9990 C   0  0  0  0  0  0  0  0  0  0  0  0
   11.1850   13.1230   23.3600 N   0  0  0  0  0  0  0  0  0  0  0  0
   10.4910   11.8720   23.0600 C   0  0  0  0  0  0  0  0  0  0  0  0
    9.4230   11.5500   23.8920 C   0  0  0  0  0  0  0  0  0  0  0  0
    8.7610   12.5010   24.6550 C   0  0  0  0  0  0  0  0  0  0  0  0
    7.6850   12.1390   25.4860 C   0  0  0  0  0  0  0  0  0  0  0  0
    7.0210   13.1080   26.2600 C   0  0  0  0  0  0  0  0  0  0  0  0
    5.9580   12.7540   27.0840 C   0  0  0  0  0  0  0  0  0  0  0  0
    5.5510   11.4330   27.1380 C   0  0  0  0  0  0  0  0  0  0  0  0
    6.2040   10.4750   26.3740 C   0  0  0  0  0  0  0  0  0  0  0  0
    7.2730   10.7910   25.5420 C   0  0  0  0  0  0  0  0  0  0  0  0
    7.8720    9.8290   24.8250 N   0  0  0  0  0  0  0  0  0  0  0  0
    8.9820   10.2600   23.9830 C   0  0  0  0  0  0  0  0  0  0  0  0
    9.5980    9.2920   23.2490 O   0  0  0  0  0  0  0  0  0  0  0  0
   14.9170   12.9120   24.1540 C   0  0  0  0  0  0  0  0  0  0  0  0
   15.7060   12.6520   25.3740 N   0  0  0  0  0  0  0  0  0  0  0  0
   15.0320   12.7270   26.6310 C   0  0  0  0  0  0  0  0  0  0  0  0
   16.1050   12.4430   27.6420 C   0  0  0  0  0  0  0  0  0  0  0  0
   16.9500   11.4080   26.9300 C   0  0  0  0  0  0  0  0  0  0  0  0
   16.4840   11.4250   25.4820 C   0  0  0  0  0  0  0  0  0  0  0  0
  2  1  1  6
  2  3  1  0
  3  4  1  0
  4  5  1  0
  5  6  1  0
  6  7  2  0
  7  8  1  0
  8  9  2  0
  9 10  1  0
 10 11  2  0
 11 12  1  0
 12 13  2  0
 13 14  1  0
 14 15  2  0
 15 16  1  0
  2 17  1  0
 17 18  1  0
 18 19  1  0
 19 20  1  0
 20 21  1  0
 21 22  1  0
 15  6  1  0
 22 18  1  0
 13  8  1  0
A    1
 C1 
A    2
 C2 
A    3
 C3 
A    4
 N1 
A    5
 C4 
A    6
 C5 
A    7
 C6 
A    8
 C7 
A    9
 C8 
A   10
 C9 
A   11
 C10
A   12
 C11
A   13
 C12
A   14
 N2 
A   15
 C13
A   16
 O1 
A   17
 C14
A   18
 N3 
A   19
 C15
A   20
 C16
A   21
 C17
A   22
 C18
M  END
>  <similarity>  (6) 
NA

>  <smiles>  (6) 
CC(CNCc1cc2ccccc2nc1O)CN1CCCC1

>  <cmpd_id>  (6) 
ENAMINE:Z1234089188

>  <used_subnode>  (6) 
NA

>  <used_synthon>  (6) 
NA

>  <ref_subnode>  (6) 
c1ccc2ncccc2c1

>  <ref_synthon>  (6) 
[Xe]N1CCCC1

>  <fragmentA>  (6) 
x1097_1A

>  <fragmentB>  (6) 
x1140_0A

>  <HA>  (6) 
22

>  <HBD>  (6) 
2

>  <HBA>  (6) 
4

>  <MW>  (6) 
299.19976242

>  <TPSA>  (6) 
48.39000000000001

>  <LogP>  (6) 
2.7619000000000007

>  <RBs>  (6) 
6

>  <G_bound>  (6) 
-5.282477794999749

>  <G_unbound>  (6) 
0.26137086558429695

>  <deltaG>  (6) 
-5.543848660584046

>  <comRMSD>  (6) 
0.6021593489818687

>  <substructure_overlap_check>  (6) 
True

>  <sucos>  (6) 
0.591233857737514

>  <interactions>  (6) 
Hydrophobic_PRO-107,HBAcceptor_TYR-90,HBDonor_TYR-90,Hydrophobic_TYR-89,HBDonor_SER-105

>  <total_num_ints>  (6) 
5

>  <total_num_ints_nonhyd>  (6) 
3

>  <num_uniq_frag_ints>  (6) 
5

>  <num_repl_uniq_ints>  (6) 
2

>  <num_uniq_ints_lost>  (6) 
3

>  <num_new_uniq_ints>  (6) 
3

>  <int_check>  (6) 
True

>  <original SMILES>  (6) 
CC(CNCc1cc2ccccc2nc1O)CN1CCCC1

>  <original_name>  (6) 
x1097_1A-x1140_0A_207_PXX

>  <ref_mols>  (6) 
Ax1097a,Ax1140a

>  <ref_pdb>  (6) 
Ax0310a

>  <rationale>  (6) 
FragNet: perfect merge incl c1ccc2ncccc2c1,[Xe]N1CCCC1

$$$$
x0528_0A-x1097_1A_1786_B1X
     RDKit          3D

 21 23  0  0  0  0  0  0  0  0999 V2000
   12.8690   16.0800   21.2670 C   0  0  0  0  0  0  0  0  0  0  0  0
   12.0110   15.7080   22.3290 N   0  0  0  0  0  0  0  0  0  0  0  0
   12.6020   15.2550   23.5320 C   0  0  0  0  0  0  0  0  0  0  0  0
   12.9670   13.9010   23.1420 C   0  0  0  0  0  0  0  0  0  0  0  0
   11.7410   13.4750   22.4310 C   0  0  1  0  0  0  0  0  0  0  0  0
   11.0410   12.5650   23.3540 C   0  0  0  0  0  0  0  0  0  0  0  0
    9.9260   12.1060   22.6310 N   0  0  0  0  0  0  0  0  0  0  0  0
    8.7490   13.1630   22.9990 S   0  0  0  0  0  6  0  0  0  0  0  0
    7.6910   13.2920   22.0180 O   0  0  0  0  0  0  0  0  0  0  0  0
    9.3280   14.2640   23.6950 O   0  0  0  0  0  0  0  0  0  0  0  0
    8.0940   12.1610   24.1920 C   0  0  0  0  0  0  0  0  0  0  0  0
    8.2710   10.7920   24.2500 C   0  0  0  0  0  0  0  0  0  0  0  0
    7.6790   10.0390   25.1870 N   0  0  0  0  0  0  0  0  0  0  0  0
    6.9050   10.7390   26.0730 C   0  0  0  0  0  0  0  0  0  0  0  0
    6.1430   10.2130   27.1570 C   0  0  0  0  0  0  0  0  0  0  0  0
    5.4820   11.1740   27.8640 C   0  0  0  0  0  0  0  0  0  0  0  0
    5.7580   12.7330   27.2510 S   0  0  0  0  0  0  0  0  0  0  0  0
    6.7550   12.1120   26.0270 C   0  0  0  0  0  0  0  0  0  0  0  0
    7.3570   12.8420   25.0740 C   0  0  0  0  0  0  0  0  0  0  0  0
   11.0660   14.7880   22.0510 C   0  0  0  0  0  0  0  0  0  0  0  0
    9.9610   15.0190   21.5870 O   0  0  0  0  0  0  0  0  0  0  0  0
  1  2  1  0
  2  3  1  0
  3  4  1  0
  4  5  1  0
  5  6  1  1
  6  7  1  0
  7  8  1  0
  8  9  2  0
  8 10  2  0
  8 11  1  0
 11 12  2  0
 12 13  1  0
 13 14  2  0
 14 15  1  0
 15 16  2  0
 16 17  1  0
 17 18  1  0
 18 19  2  0
  5 20  1  0
 20 21  2  0
 20  2  1  0
 19 11  1  0
 18 14  1  0
A    1
 C1 
A    2
 N1 
A    3
 C2 
A    4
 C3 
A    5
 C4 
A    6
 C5 
A    7
 N2 
A    8
 S1 
A    9
 O1 
A   10
 O2 
A   11
 C6 
A   12
 C7 
A   13
 N3 
A   14
 C8 
A   15
 C9 
A   16
 C10
A   17
 S2 
A   18
 C11
A   19
 C12
A   20
 C13
A   21
 O3 
M  END
>  <similarity>  (7) 
1.0

>  <smiles>  (7) 
CN1CCC(CNS(=O)(=O)c2cnc3ccsc3c2)C1=O

>  <cmpd_id>  (7) 
ENAMINE:Z2919869904

>  <used_subnode>  (7) 
CN1CCCC1=O

>  <used_synthon>  (7) 
[Xe]c1cnc2ccsc2c1

>  <ref_subnode>  (7) 
CN1CCCC1=O

>  <ref_synthon>  (7) 
[Xe]c1cnc2ccccc2c1

>  <fragmentA>  (7) 
x0528_0A

>  <fragmentB>  (7) 
x1097_1A

>  <HA>  (7) 
21

>  <HBD>  (7) 
1

>  <HBA>  (7) 
5

>  <MW>  (7) 
325.05548334

>  <TPSA>  (7) 
79.37

>  <LogP>  (7) 
1.0529

>  <RBs>  (7) 
4

>  <G_bound>  (7) 
-4.9135776562897515

>  <G_unbound>  (7) 
0.4311557361177912

>  <deltaG>  (7) 
-5.344733392407543

>  <comRMSD>  (7) 
1.1560423984462975

>  <substructure_overlap_check>  (7) 
True

>  <sucos>  (7) 
0.5920374943648582

>  <interactions>  (7) 
Hydrophobic_PRO-107,Hydrophobic_HIS-21,HBAcceptor_GLY-127,HBDonor_SER-125,HBAcceptor_SER-87

>  <total_num_ints>  (7) 
5

>  <total_num_ints_nonhyd>  (7) 
3

>  <num_uniq_frag_ints>  (7) 
4

>  <num_repl_uniq_ints>  (7) 
2

>  <num_uniq_ints_lost>  (7) 
2

>  <num_new_uniq_ints>  (7) 
3

>  <int_check>  (7) 
True

>  <original SMILES>  (7) 
CN1CCC(CNS(=O)(=O)c2cnc3ccsc3c2)C1=O

>  <original_name>  (7) 
x0528_0A-x1097_1A_1786_B1X

>  <ref_mols>  (7) 
Ax0528a,Ax1097a

>  <ref_pdb>  (7) 
Ax0310a

>  <rationale>  (7) 
FragNet: 1 round bioisosteric merging incl CN1CCCC1=O and [Xe]c1cnc2ccsc2c1 replacing [Xe]c1cnc2ccccc2c1

$$$$
x1097_1A-x0528_0A_501_B1X
     RDKit          3D

 23 25  0  0  0  0  0  0  0  0999 V2000
   10.5940    9.3970   22.0630 N   0  0  0  0  0  0  0  0  0  0  0  0
   10.1580   10.1650   22.7840 C   0  0  0  0  0  0  0  0  0  0  0  0
    9.3500   10.9420   23.7520 C   0  0  0  0  0  0  0  0  0  0  0  0
    8.5000    9.8570   24.2210 C   0  0  0  0  0  0  0  0  0  0  0  0
    7.5620    9.9750   25.0880 N   0  0  0  0  0  0  0  0  0  0  0  0
    7.3620   11.1500   25.5770 C   0  0  0  0  0  0  0  0  0  0  0  0
    6.3240   11.1310   26.4830 C   0  0  0  0  0  0  0  0  0  0  0  0
    5.9180   12.2630   27.1390 C   0  0  0  0  0  0  0  0  0  0  0  0
    6.5790   13.4600   26.8730 C   0  0  0  0  0  0  0  0  0  0  0  0
    6.0960   14.5250   27.5800 O   0  0  0  0  0  0  0  0  0  0  0  0
    6.6070   14.7140   28.8910 C   0  0  0  0  0  0  0  0  0  0  0  0
    7.2180   15.9220   28.9640 F   0  0  0  0  0  0  0  0  0  0  0  0
    5.5490   14.7640   29.7390 F   0  0  0  0  0  0  0  0  0  0  0  0
    7.6500   13.5030   25.9450 C   0  0  0  0  0  0  0  0  0  0  0  0
    8.1040   12.3480   25.2430 C   0  0  0  0  0  0  0  0  0  0  0  0
    9.2320   12.2810   24.2350 C   0  0  0  0  0  0  0  0  0  0  0  0
   10.0750   13.4470   23.8000 N   0  0  0  0  0  0  0  0  0  0  0  0
   11.4740   13.7100   24.2990 C   0  0  0  0  0  0  0  0  0  0  0  0
   12.3450   14.5480   23.3300 C   0  0  0  0  0  0  0  0  0  0  0  0
   11.6100   15.3330   22.3620 N   0  0  0  0  0  0  0  0  0  0  0  0
   10.4650   14.8140   21.8510 C   0  0  0  0  0  0  0  0  0  0  0  0
    9.8330   15.4590   21.0140 O   0  0  0  0  0  0  0  0  0  0  0  0
   10.0440   13.5990   22.3340 C   0  0  0  0  0  0  0  0  0  0  0  0
  1  2  3  0
  2  3  1  0
  3  4  2  0
  4  5  1  0
  5  6  2  0
  6  7  1  0
  7  8  2  0
  8  9  1  0
  9 10  1  0
 10 11  1  0
 11 12  1  0
 11 13  1  0
  9 14  2  0
 14 15  1  0
 15 16  2  0
 16 17  1  0
 17 18  1  0
 18 19  1  0
 19 20  1  0
 20 21  1  0
 21 22  2  0
 21 23  1  0
 16  3  1  0
 23 17  1  0
 15  6  1  0
A    1
 N1 
A    2
 C1 
A    3
 C2 
A    4
 C3 
A    5
 N2 
A    6
 C4 
A    7
 C5 
A    8
 C6 
A    9
 C7 
A   10
 O1 
A   11
 C8 
A   12
 F1 
A   13
 F2 
A   14
 C9 
A   15
 C10
A   16
 C11
A   17
 N3 
A   18
 C12
A   19
 C13
A   20
 N4 
A   21
 C14
A   22
 O2 
A   23
 C15
M  END
>  <similarity>  (8) 
1.0

>  <smiles>  (8) 
N#Cc1cnc2ccc(OC(F)F)cc2c1N1CCNC(=O)C1

>  <cmpd_id>  (8) 
ENAMINE:Z573255120

>  <used_subnode>  (8) 
c1ccc2ncccc2c1

>  <used_synthon>  (8) 
O=C1CN([Xe])CCN1

>  <ref_subnode>  (8) 
c1ccc2ncccc2c1

>  <ref_synthon>  (8) 
O=C1NCCC1[Xe]

>  <fragmentA>  (8) 
x1097_1A

>  <fragmentB>  (8) 
x0528_0A

>  <HA>  (8) 
23

>  <HBD>  (8) 
1

>  <HBA>  (8) 
5

>  <MW>  (8) 
318.092832064

>  <TPSA>  (8) 
78.25

>  <LogP>  (8) 
1.6440799999999995

>  <RBs>  (8) 
3

>  <G_bound>  (8) 
-2.8096608560104457

>  <G_unbound>  (8) 
1.7472133916137436

>  <deltaG>  (8) 
-4.556874247624189

>  <comRMSD>  (8) 
1.1238461865819847

>  <substructure_overlap_check>  (8) 
True

>  <sucos>  (8) 
0.5986819855455308

>  <interactions>  (8) 
Hydrophobic_PRO-107,HBAcceptor_SER-87,HBDonor_SER-87

>  <total_num_ints>  (8) 
3

>  <total_num_ints_nonhyd>  (8) 
2

>  <num_uniq_frag_ints>  (8) 
4

>  <num_repl_uniq_ints>  (8) 
1

>  <num_uniq_ints_lost>  (8) 
3

>  <num_new_uniq_ints>  (8) 
2

>  <int_check>  (8) 
True

>  <original SMILES>  (8) 
N#Cc1cnc2ccc(OC(F)F)cc2c1N1CCNC(=O)C1

>  <original_name>  (8) 
x1097_1A-x0528_0A_501_B1X

>  <ref_mols>  (8) 
Ax1097a,Ax0528a

>  <ref_pdb>  (8) 
Ax0310a

>  <rationale>  (8) 
FragNet: 1 round bioisosteric merging incl c1ccc2ncccc2c1 and O=C1CN([Xe])CCN1 replacing O=C1NCCC1[Xe]

$$$$
x0528_0A-x1097_1A_101_B1X
     RDKit          3D

 22 24  0  0  0  0  0  0  0  0999 V2000
   13.1420   16.0370   21.1590 C   0  0  0  0  0  0  0  0  0  0  0  0
   12.1220   15.8630   22.1460 N   0  0  0  0  0  0  0  0  0  0  0  0
   12.5600   15.2760   23.3650 C   0  0  0  0  0  0  0  0  0  0  0  0
   13.0760   14.0680   22.7580 C   0  0  0  0  0  0  0  0  0  0  0  0
   11.8700   13.6610   21.9920 C   0  0  1  0  0  0  0  0  0  0  0  0
   11.3630   12.8130   23.0750 C   0  0  0  0  0  0  0  0  0  0  0  0
   11.8690   12.6520   24.1580 O   0  0  0  0  0  0  0  0  0  0  0  0
   10.1880   12.3010   22.5780 N   0  0  0  0  0  0  0  0  0  0  0  0
    8.9110   13.1490   23.0730 S   0  0  0  0  0  6  0  0  0  0  0  0
    7.8770   13.3190   22.0640 O   0  0  0  0  0  0  0  0  0  0  0  0
    9.3740   14.2370   23.8760 O   0  0  0  0  0  0  0  0  0  0  0  0
    8.2510   12.0400   24.1640 C   0  0  0  0  0  0  0  0  0  0  0  0
    8.4990   10.5390   24.1360 C   0  0  0  0  0  0  0  0  0  0  0  0
    7.7330    9.9130   25.1680 N   0  0  0  0  0  0  0  0  0  0  0  0
    6.8990   10.6760   26.0590 C   0  0  0  0  0  0  0  0  0  0  0  0
    6.0830   10.1880   27.1170 C   0  0  0  0  0  0  0  0  0  0  0  0
    5.4080   11.2140   27.7880 C   0  0  0  0  0  0  0  0  0  0  0  0
    5.7680   12.7360   27.1350 S   0  0  0  0  0  0  0  0  0  0  0  0
    6.7980   12.0420   25.9730 C   0  0  0  0  0  0  0  0  0  0  0  0
    7.4700   12.7190   25.0290 C   0  0  0  0  0  0  0  0  0  0  0  0
   11.1690   14.9790   21.7770 C   0  0  0  0  0  0  0  0  0  0  0  0
   10.0410   15.2140   21.3660 O   0  0  0  0  0  0  0  0  0  0  0  0
  1  2  1  0
  2  3  1  0
  3  4  1  0
  4  5  1  0
  5  6  1  1
  6  7  2  0
  6  8  1  0
  8  9  1  0
  9 10  2  0
  9 11  2  0
  9 12  1  0
 12 13  2  0
 13 14  1  0
 14 15  2  0
 15 16  1  0
 16 17  2  0
 17 18  1  0
 18 19  1  0
 19 20  2  0
  5 21  1  0
 21 22  2  0
 21  2  1  0
 20 12  1  0
 19 15  1  0
A    1
 C1 
A    2
 N1 
A    3
 C2 
A    4
 C3 
A    5
 C4 
A    6
 C5 
A    7
 O1 
A    8
 N2 
A    9
 S1 
A   10
 O2 
A   11
 O3 
A   12
 C6 
A   13
 C7 
A   14
 N3 
A   15
 C8 
A   16
 C9 
A   17
 C10
A   18
 S2 
A   19
 C11
A   20
 C12
A   21
 C13
A   22
 O4 
M  END
>  <similarity>  (9) 
1.0

>  <smiles>  (9) 
CN1CCC(C(=O)NS(=O)(=O)c2cnc3ccsc3c2)C1=O

>  <cmpd_id>  (9) 
ENAMINE:Z4122754113

>  <used_subnode>  (9) 
O=C1CCCN1

>  <used_synthon>  (9) 
[Xe]c1cnc2ccsc2c1

>  <ref_subnode>  (9) 
O=C1CCCN1

>  <ref_synthon>  (9) 
[Xe]c1ccc2ccccc2n1

>  <fragmentA>  (9) 
x0528_0A

>  <fragmentB>  (9) 
x1097_1A

>  <HA>  (9) 
22

>  <HBD>  (9) 
1

>  <HBA>  (9) 
6

>  <MW>  (9) 
339.034747896

>  <TPSA>  (9) 
96.44

>  <LogP>  (9) 
0.5794999999999999

>  <RBs>  (9) 
3

>  <G_bound>  (9) 
-4.015782502450132

>  <G_unbound>  (9) 
1.214209236628986

>  <deltaG>  (9) 
-5.229991739079118

>  <comRMSD>  (9) 
1.1201246142559895

>  <substructure_overlap_check>  (9) 
True

>  <sucos>  (9) 
0.6197230002822968

>  <interactions>  (9) 
Hydrophobic_PRO-107,Hydrophobic_HIS-21,Hydrophobic_TYR-89,HBAcceptor_GLY-127,HBDonor_SER-125,HBAcceptor_SER-87

>  <total_num_ints>  (9) 
6

>  <total_num_ints_nonhyd>  (9) 
3

>  <num_uniq_frag_ints>  (9) 
4

>  <num_repl_uniq_ints>  (9) 
2

>  <num_uniq_ints_lost>  (9) 
2

>  <num_new_uniq_ints>  (9) 
4

>  <int_check>  (9) 
True

>  <original SMILES>  (9) 
CN1CCC(C(=O)NS(=O)(=O)c2cnc3ccsc3c2)C1=O

>  <original_name>  (9) 
x0528_0A-x1097_1A_101_B1X

>  <ref_mols>  (9) 
Ax0528a,Ax1097a

>  <ref_pdb>  (9) 
Ax0310a

>  <rationale>  (9) 
FragNet: 1 round bioisosteric merging incl O=C1CCCN1 and [Xe]c1cnc2ccsc2c1 replacing [Xe]c1ccc2ccccc2n1

$$$$
x1097_1A-x0528_0A_620_B1X
     RDKit          3D

 21 24  0  0  0  0  0  0  0  0999 V2000
    9.7980    8.9600   23.1900 C   0  0  0  0  0  0  0  0  0  0  0  0
    9.0780   10.0750   23.8810 C   0  0  0  0  0  0  0  0  0  0  0  0
    9.4660   11.3590   23.6020 C   0  0  0  0  0  0  0  0  0  0  0  0
    8.8440   12.4340   24.2170 C   0  0  0  0  0  0  0  0  0  0  0  0
    9.2920   13.7380   23.8560 N   0  0  0  0  0  0  0  0  0  0  0  0
    9.4000   13.7440   22.3550 C   0  0  0  0  0  0  0  0  0  0  0  0
   10.1630   14.9070   21.7210 C   0  0  0  0  0  0  0  0  0  0  0  0
    9.7910   15.5000   20.7110 O   0  0  0  0  0  0  0  0  0  0  0  0
   11.2700   15.3040   22.3790 N   0  0  0  0  0  0  0  0  0  0  0  0
   11.6180   14.5000   23.4990 C   0  0  0  0  0  0  0  0  0  0  0  0
   12.2540   13.2560   23.0370 C   0  0  0  0  0  0  0  0  0  0  0  0
   13.0440   14.2450   23.8260 C   0  0  0  0  0  0  0  0  0  0  0  0
   10.5450   14.1390   24.5390 C   0  0  0  0  0  0  0  0  0  0  0  0
    7.7950   12.1660   25.1580 C   0  0  0  0  0  0  0  0  0  0  0  0
    7.0830   13.1650   25.8700 C   0  0  0  0  0  0  0  0  0  0  0  0
    6.0730   12.8250   26.7670 C   0  0  0  0  0  0  0  0  0  0  0  0
    5.4150   13.7870   27.4280 F   0  0  0  0  0  0  0  0  0  0  0  0
    5.7410   11.5040   26.9790 C   0  0  0  0  0  0  0  0  0  0  0  0
    6.4310   10.5210   26.2860 C   0  0  0  0  0  0  0  0  0  0  0  0
    7.4560   10.8080   25.3790 C   0  0  0  0  0  0  0  0  0  0  0  0
    8.0820    9.7870   24.7490 N   0  0  0  0  0  0  0  0  0  0  0  0
  1  2  1  0
  2  3  2  0
  3  4  1  0
  4  5  1  0
  5  6  1  0
  6  7  1  0
  7  8  2  0
  7  9  1  0
  9 10  1  0
 10 11  1  0
 11 12  1  0
 10 13  1  0
  4 14  2  0
 14 15  1  0
 15 16  2  0
 16 17  1  0
 16 18  1  0
 18 19  2  0
 19 20  1  0
 20 21  2  0
 21  2  1  0
 13  5  1  0
 20 14  1  0
 12 10  1  0
A    1
 C1 
A    2
 C2 
A    3
 C3 
A    4
 C4 
A    5
 N1 
A    6
 C5 
A    7
 C6 
A    8
 O1 
A    9
 N2 
A   10
 C7 
A   11
 C8 
A   12
 C9 
A   13
 C10
A   14
 C11
A   15
 C12
A   16
 C13
A   17
 F1 
A   18
 C14
A   19
 C15
A   20
 C16
A   21
 N3 
M  END
>  <similarity>  (10) 
1.0

>  <smiles>  (10) 
Cc1cc(N2CC(=O)NC3(CC3)C2)c2cc(F)ccc2n1

>  <cmpd_id>  (10) 
ENAMINE:Z3395909906

>  <used_subnode>  (10) 
c1ccc2ncccc2c1

>  <used_synthon>  (10) 
O=C1CN([Xe])CC2(CC2)N1

>  <ref_subnode>  (10) 
c1ccc2ncccc2c1

>  <ref_synthon>  (10) 
O=C1NCCC1[Xe]

>  <fragmentA>  (10) 
x1097_1A

>  <fragmentB>  (10) 
x0528_0A

>  <HA>  (10) 
21

>  <HBD>  (10) 
1

>  <HBA>  (10) 
3

>  <MW>  (10) 
285.127740352

>  <TPSA>  (10) 
45.230000000000004

>  <LogP>  (10) 
2.1511200000000006

>  <RBs>  (10) 
1

>  <G_bound>  (10) 
-7.104395852269264

>  <G_unbound>  (10) 
0.43135401720754757

>  <deltaG>  (10) 
-7.5357498694768115

>  <comRMSD>  (10) 
0.8658387488578554

>  <substructure_overlap_check>  (10) 
True

>  <sucos>  (10) 
0.6234714473814902

>  <interactions>  (10) 
Hydrophobic_PRO-107,Hydrophobic_VAL-124,Hydrophobic_HIS-21,Hydrophobic_TYR-89,HBAcceptor_SER-105,HBDonor_SER-87

>  <total_num_ints>  (10) 
6

>  <total_num_ints_nonhyd>  (10) 
2

>  <num_uniq_frag_ints>  (10) 
4

>  <num_repl_uniq_ints>  (10) 
3

>  <num_uniq_ints_lost>  (10) 
1

>  <num_new_uniq_ints>  (10) 
3

>  <int_check>  (10) 
True

>  <original SMILES>  (10) 
Cc1cc(N2CC(=O)NC3(CC3)C2)c2cc(F)ccc2n1

>  <original_name>  (10) 
x1097_1A-x0528_0A_620_B1X

>  <ref_mols>  (10) 
Ax1097a,Ax0528a

>  <ref_pdb>  (10) 
Ax0310a

>  <rationale>  (10) 
FragNet: 1 round bioisosteric merging incl c1ccc2ncccc2c1 and O=C1CN([Xe])CC2(CC2)N1 replacing O=C1NCCC1[Xe]

$$$$
x1097_1A-x0528_0A_481_B1X
     RDKit          3D

 21 23  0  0  0  0  0  0  0  0999 V2000
    6.5440   15.4050   25.7920 C   0  0  0  0  0  0  0  0  0  0  0  0
    7.4440   14.4680   26.3760 O   0  0  0  0  0  0  0  0  0  0  0  0
    7.0200   13.1680   26.3710 C   0  0  0  0  0  0  0  0  0  0  0  0
    5.9520   12.7000   27.1330 C   0  0  0  0  0  0  0  0  0  0  0  0
    5.5960   11.3650   27.0540 C   0  0  0  0  0  0  0  0  0  0  0  0
    6.3040   10.5290   26.2270 C   0  0  0  0  0  0  0  0  0  0  0  0
    7.3720   10.9480   25.4570 C   0  0  0  0  0  0  0  0  0  0  0  0
    7.9730   10.0110   24.6990 N   0  0  0  0  0  0  0  0  0  0  0  0
    9.0090   10.3760   23.9340 C   0  0  0  0  0  0  0  0  0  0  0  0
    9.4740   11.7050   23.9110 C   0  0  0  0  0  0  0  0  0  0  0  0
    8.8770   12.7240   24.7000 C   0  0  0  0  0  0  0  0  0  0  0  0
    9.3110   14.0830   24.7280 N   0  0  0  0  0  0  0  0  0  0  0  0
   10.7640   14.3890   24.8840 C   0  0  0  0  0  0  0  0  0  0  0  0
   11.3730   14.4400   23.4950 C   0  0  2  0  0  0  0  0  0  0  0  0
   12.5010   13.7270   23.2490 C   0  0  0  0  0  0  0  0  0  0  0  0
   12.4480   13.5130   21.9010 C   0  0  0  0  0  0  0  0  0  0  0  0
   12.3150   14.6980   20.9570 C   0  0  0  0  0  0  0  0  0  0  0  0
   11.3710   15.5190   21.5230 C   0  0  0  0  0  0  0  0  0  0  0  0
   10.4070   16.0060   20.9460 O   0  0  0  0  0  0  0  0  0  0  0  0
   11.6340   15.6690   22.8290 N   0  0  0  0  0  0  0  0  0  0  0  0
    7.7560   12.3170   25.5190 C   0  0  0  0  0  0  0  0  0  0  0  0
  1  2  1  0
  2  3  1  0
  3  4  2  0
  4  5  1  0
  5  6  2  0
  6  7  1  0
  7  8  2  0
  8  9  1  0
  9 10  2  0
 10 11  1  0
 11 12  1  0
 12 13  1  0
 14 13  1  1
 14 15  1  0
 15 16  1  0
 16 17  1  0
 17 18  1  0
 18 19  2  0
 18 20  1  0
 11 21  2  0
 21  3  1  0
 21  7  1  0
 20 14  1  0
A    1
 C1 
A    2
 O1 
A    3
 C2 
A    4
 C3 
A    5
 C4 
A    6
 C5 
A    7
 C6 
A    8
 N1 
A    9
 C7 
A   10
 C8 
A   11
 C9 
A   12
 N2 
A   13
 C10
A   14
 C11
A   15
 C12
A   16
 C13
A   17
 C14
A   18
 C15
A   19
 O2 
A   20
 N3 
A   21
 C16
M  END
>  <similarity>  (11) 
1.0

>  <smiles>  (11) 
COc1cccc2nccc(NCC3CCCC(=O)N3)c12

>  <cmpd_id>  (11) 
ENAMINE:Z4342861143

>  <used_subnode>  (11) 
c1ccc2ncccc2c1

>  <used_synthon>  (11) 
O=C1CCCC([Xe])N1

>  <ref_subnode>  (11) 
c1ccc2ncccc2c1

>  <ref_synthon>  (11) 
O=C1NCCC1[Xe]

>  <fragmentA>  (11) 
x1097_1A

>  <fragmentB>  (11) 
x0528_0A

>  <HA>  (11) 
21

>  <HBD>  (11) 
2

>  <HBA>  (11) 
4

>  <MW>  (11) 
285.147726848

>  <TPSA>  (11) 
63.25

>  <LogP>  (11) 
2.324

>  <RBs>  (11) 
4

>  <G_bound>  (11) 
-3.5229549359657018

>  <G_unbound>  (11) 
1.256915199998528

>  <deltaG>  (11) 
-4.77987013596423

>  <comRMSD>  (11) 
0.8415149381785836

>  <substructure_overlap_check>  (11) 
True

>  <sucos>  (11) 
0.6247174817095787

>  <interactions>  (11) 
Hydrophobic_TYR-90,Hydrophobic_PRO-107,Hydrophobic_HIS-21,HBDonor_SER-87,HBDonor_GLU-88

>  <total_num_ints>  (11) 
5

>  <total_num_ints_nonhyd>  (11) 
2

>  <num_uniq_frag_ints>  (11) 
4

>  <num_repl_uniq_ints>  (11) 
2

>  <num_uniq_ints_lost>  (11) 
2

>  <num_new_uniq_ints>  (11) 
3

>  <int_check>  (11) 
True

>  <original SMILES>  (11) 
COc1cccc2nccc(NCC3CCCC(=O)N3)c12

>  <original_name>  (11) 
x1097_1A-x0528_0A_481_B1X

>  <ref_mols>  (11) 
Ax1097a,Ax0528a

>  <ref_pdb>  (11) 
Ax0310a

>  <rationale>  (11) 
FragNet: 1 round bioisosteric merging incl c1ccc2ncccc2c1 and O=C1CCCC([Xe])N1 replacing O=C1NCCC1[Xe]

$$$$
x1097_1A-x0528_0A_1169_B1X
     RDKit          3D

 21 23  0  0  0  0  0  0  0  0999 V2000
   10.0720   15.5480   21.1320 O   0  0  0  0  0  0  0  0  0  0  0  0
   10.9340   15.0740   21.8640 C   0  0  0  0  0  0  0  0  0  0  0  0
   12.2430   15.7210   22.1680 C   0  0  0  0  0  0  0  0  0  0  0  0
   13.1280   14.7720   22.5970 C   0  0  0  0  0  0  0  0  0  0  0  0
   12.8370   14.2680   23.8460 C   0  0  0  0  0  0  0  0  0  0  0  0
   11.3970   13.7720   23.9430 C   0  0  1  0  0  0  0  0  0  0  0  0
   10.4560   14.2850   24.8600 C   0  0  0  0  0  0  0  0  0  0  0  0
   10.8200   15.0080   25.7840 O   0  0  0  0  0  0  0  0  0  0  0  0
    9.1670   13.8740   24.5850 N   0  0  0  0  0  0  0  0  0  0  0  0
    8.7420   12.5230   24.6410 C   0  0  0  0  0  0  0  0  0  0  0  0
    9.3730   11.5230   23.8800 C   0  0  0  0  0  0  0  0  0  0  0  0
    8.8620   10.1050   24.0190 C   0  0  0  0  0  0  0  0  0  0  0  0
    7.8400    9.8160   24.8330 N   0  0  0  0  0  0  0  0  0  0  0  0
    7.2660   10.7960   25.5360 C   0  0  0  0  0  0  0  0  0  0  0  0
    6.1210   10.4330   26.4390 C   0  0  0  0  0  0  0  0  0  0  0  0
    5.5010   11.4090   27.1840 C   0  0  0  0  0  0  0  0  0  0  0  0
    5.8870   12.7240   27.1380 C   0  0  0  0  0  0  0  0  0  0  0  0
    4.9990   14.0230   28.1830 Br  0  0  0  0  0  0  0  0  0  0  0  0
    6.9340   13.0780   26.3150 C   0  0  0  0  0  0  0  0  0  0  0  0
    7.6570   12.1610   25.4940 C   0  0  0  0  0  0  0  0  0  0  0  0
   10.7440   13.7490   22.5590 C   0  0  0  0  0  0  0  0  0  0  0  0
  1  2  2  0
  2  3  1  0
  3  4  1  0
  4  5  1  0
  5  6  1  0
  6  7  1  1
  7  8  2  0
  7  9  1  0
  9 10  1  0
 10 11  2  0
 11 12  1  0
 12 13  2  0
 13 14  1  0
 14 15  2  0
 15 16  1  0
 16 17  2  0
 17 18  1  0
 17 19  1  0
 19 20  2  0
  6 21  1  0
 21  2  1  0
 20 10  1  0
 20 14  1  0
A    1
 O1 
A    2
 C1 
A    3
 C2 
A    4
 C3 
A    5
 C4 
A    6
 C5 
A    7
 C6 
A    8
 O2 
A    9
 N1 
A   10
 C7 
A   11
 C8 
A   12
 C9 
A   13
 N2 
A   14
 C10
A   15
 C11
A   16
 C12
A   17
 C13
A   18
BR1 
A   19
 C14
A   20
 C15
A   21
 C16
M  END
>  <similarity>  (12) 
1.0

>  <smiles>  (12) 
O=C1CCCC(C(=O)Nc2ccnc3ccc(Br)cc23)C1

>  <cmpd_id>  (12) 
ENAMINE:Z4051024694

>  <used_subnode>  (12) 
c1ccc2ncccc2c1

>  <used_synthon>  (12) 
O=C1CCCC([Xe])C1

>  <ref_subnode>  (12) 
c1ccc2ncccc2c1

>  <ref_synthon>  (12) 
O=C1CCCN1[Xe]

>  <fragmentA>  (12) 
x1097_1A

>  <fragmentB>  (12) 
x0528_0A

>  <HA>  (12) 
21

>  <HBD>  (12) 
1

>  <HBA>  (12) 
3

>  <MW>  (12) 
346.03168982000005

>  <TPSA>  (12) 
59.06

>  <LogP>  (12) 
3.695100000000002

>  <RBs>  (12) 
2

>  <G_bound>  (12) 
-5.667669412502134

>  <G_unbound>  (12) 
0.5626989749723978

>  <deltaG>  (12) 
-6.230368387474532

>  <comRMSD>  (12) 
0.4516811237743458

>  <substructure_overlap_check>  (12) 
True

>  <sucos>  (12) 
0.6401510872846041

>  <interactions>  (12) 
Hydrophobic_TYR-90,Hydrophobic_PRO-107,Hydrophobic_HIS-21,Hydrophobic_TYR-89,HBDonor_SER-87,HBAcceptor_GLU-88

>  <total_num_ints>  (12) 
6

>  <total_num_ints_nonhyd>  (12) 
2

>  <num_uniq_frag_ints>  (12) 
4

>  <num_repl_uniq_ints>  (12) 
2

>  <num_uniq_ints_lost>  (12) 
2

>  <num_new_uniq_ints>  (12) 
4

>  <int_check>  (12) 
True

>  <original SMILES>  (12) 
O=C1CCCC(C(=O)Nc2ccnc3ccc(Br)cc23)C1

>  <original_name>  (12) 
x1097_1A-x0528_0A_1169_B1X

>  <ref_mols>  (12) 
Ax1097a,Ax0528a

>  <ref_pdb>  (12) 
Ax0310a

>  <rationale>  (12) 
FragNet: 1 round bioisosteric merging incl c1ccc2ncccc2c1 and O=C1CCCC([Xe])C1 replacing O=C1CCCN1[Xe]

$$$$
x1097_1A-x0528_0A_1171_B1X
     RDKit          3D

 22 24  0  0  0  0  0  0  0  0999 V2000
   10.7250    8.6640   23.2270 C   0  0  0  0  0  0  0  0  0  0  0  0
    9.4400    9.2920   22.9390 C   0  0  0  0  0  0  0  0  0  0  0  0
    8.8610   10.2850   23.8910 C   0  0  0  0  0  0  0  0  0  0  0  0
    9.4070   11.6400   23.9060 C   0  0  0  0  0  0  0  0  0  0  0  0
    8.8350   12.5570   24.7670 C   0  0  0  0  0  0  0  0  0  0  0  0
    9.2930   13.9010   24.8680 N   0  0  0  0  0  0  0  0  0  0  0  0
   10.6020   14.3410   25.0940 C   0  0  0  0  0  0  0  0  0  0  0  0
   11.0960   14.6430   26.1710 O   0  0  0  0  0  0  0  0  0  0  0  0
   11.3350   14.4700   23.9120 C   0  0  1  0  0  0  0  0  0  0  0  0
   12.6990   14.0520   23.7150 C   0  0  0  0  0  0  0  0  0  0  0  0
   13.1400   14.5480   22.4790 C   0  0  0  0  0  0  0  0  0  0  0  0
   12.2850   15.3010   21.6790 C   0  0  0  0  0  0  0  0  0  0  0  0
   10.8230   14.9490   21.7380 C   0  0  0  0  0  0  0  0  0  0  0  0
    9.9590   15.4700   21.0280 O   0  0  0  0  0  0  0  0  0  0  0  0
   10.5360   14.0030   22.7050 C   0  0  0  0  0  0  0  0  0  0  0  0
    7.7430   12.1650   25.5950 C   0  0  0  0  0  0  0  0  0  0  0  0
    7.1030   13.0280   26.4790 C   0  0  0  0  0  0  0  0  0  0  0  0
    6.0360   12.5930   27.2660 C   0  0  0  0  0  0  0  0  0  0  0  0
    5.5940   11.2960   27.1810 C   0  0  0  0  0  0  0  0  0  0  0  0
    6.2260   10.4340   26.3050 C   0  0  0  0  0  0  0  0  0  0  0  0
    7.2960   10.8300   25.5040 C   0  0  0  0  0  0  0  0  0  0  0  0
    7.8420    9.9180   24.6850 N   0  0  0  0  0  0  0  0  0  0  0  0
  1  2  1  0
  2  3  1  0
  3  4  2  0
  4  5  1  0
  5  6  1  0
  6  7  1  0
  7  8  2  0
  9  7  1  1
  9 10  1  0
 10 11  1  0
 11 12  1  0
 12 13  1  0
 13 14  2  0
 13 15  1  0
  5 16  2  0
 16 17  1  0
 17 18  2  0
 18 19  1  0
 19 20  2  0
 20 21  1  0
 21 22  2  0
 22  3  1  0
 15  9  1  0
 21 16  1  0
A    1
 C1 
A    2
 C2 
A    3
 C3 
A    4
 C4 
A    5
 C5 
A    6
 N1 
A    7
 C6 
A    8
 O1 
A    9
 C7 
A   10
 C8 
A   11
 C9 
A   12
 C10
A   13
 C11
A   14
 O2 
A   15
 C12
A   16
 C13
A   17
 C14
A   18
 C15
A   19
 C16
A   20
 C17
A   21
 C18
A   22
 N2 
M  END
>  <similarity>  (13) 
1.0

>  <smiles>  (13) 
CCc1cc(NC(=O)C2CCCC(=O)C2)c2ccccc2n1

>  <cmpd_id>  (13) 
ENAMINE:Z4099498802

>  <used_subnode>  (13) 
c1ccc2ncccc2c1

>  <used_synthon>  (13) 
O=C1CCCC([Xe])C1

>  <ref_subnode>  (13) 
c1ccc2ncccc2c1

>  <ref_synthon>  (13) 
O=C1CCCN1[Xe]

>  <fragmentA>  (13) 
x1097_1A

>  <fragmentB>  (13) 
x0528_0A

>  <HA>  (13) 
22

>  <HBD>  (13) 
1

>  <HBA>  (13) 
3

>  <MW>  (13) 
296.15247788000005

>  <TPSA>  (13) 
59.06

>  <LogP>  (13) 
3.4950000000000028

>  <RBs>  (13) 
3

>  <G_bound>  (13) 
-6.580376030071601

>  <G_unbound>  (13) 
0.3964833407401063

>  <deltaG>  (13) 
-6.976859370811708

>  <comRMSD>  (13) 
0.5491410839566168

>  <substructure_overlap_check>  (13) 
True

>  <sucos>  (13) 
0.6544040099476328

>  <interactions>  (13) 
Hydrophobic_TYR-90,Hydrophobic_PRO-107,Hydrophobic_VAL-124,Hydrophobic_TYR-89,Hydrophobic_HIS-21,Hydrophobic_CYS-110,HBAcceptor_SER-105,HBAcceptor_SER-87,Hydrophobic_ASP-109

>  <total_num_ints>  (13) 
9

>  <total_num_ints_nonhyd>  (13) 
2

>  <num_uniq_frag_ints>  (13) 
4

>  <num_repl_uniq_ints>  (13) 
3

>  <num_uniq_ints_lost>  (13) 
1

>  <num_new_uniq_ints>  (13) 
6

>  <int_check>  (13) 
True

>  <original SMILES>  (13) 
CCc1cc(NC(=O)C2CCCC(=O)C2)c2ccccc2n1

>  <original_name>  (13) 
x1097_1A-x0528_0A_1171_B1X

>  <ref_mols>  (13) 
Ax1097a,Ax0528a

>  <ref_pdb>  (13) 
Ax0310a

>  <rationale>  (13) 
FragNet: 1 round bioisosteric merging incl c1ccc2ncccc2c1 and O=C1CCCC([Xe])C1 replacing O=C1CCCN1[Xe]

$$$$
x1097_1A-x0528_0A_1172_B1X
     RDKit          3D

 22 25  0  0  0  0  0  0  0  0999 V2000
   10.3830    9.2690   22.5520 C   0  0  0  0  0  0  0  0  0  0  0  0
    9.1990    8.9720   23.3710 C   0  0  0  0  0  0  0  0  0  0  0  0
    8.6750   10.1520   24.1070 C   0  0  0  0  0  0  0  0  0  0  0  0
    9.1570   11.4380   23.9280 C   0  0  0  0  0  0  0  0  0  0  0  0
    8.5830   12.4750   24.6610 C   0  0  0  0  0  0  0  0  0  0  0  0
    9.0020   13.8330   24.5470 N   0  0  0  0  0  0  0  0  0  0  0  0
   10.2860   14.3290   24.6440 C   0  0  0  0  0  0  0  0  0  0  0  0
   10.8670   14.6540   25.6750 O   0  0  0  0  0  0  0  0  0  0  0  0
   10.9480   14.4710   23.2550 C   0  0  1  0  0  0  0  0  0  0  0  0
   11.4850   13.1430   22.8190 C   0  0  0  0  0  0  0  0  0  0  0  0
   12.7170   13.5870   22.0630 C   0  0  0  0  0  0  0  0  0  0  0  0
   12.4580   15.0510   21.7820 C   0  0  1  0  0  0  0  0  0  0  0  0
   11.0830   15.2250   21.1210 C   0  0  0  0  0  0  0  0  0  0  0  0
   10.1270   14.8580   22.1310 O   0  0  0  0  0  0  0  0  0  0  0  0
   12.1460   15.4420   23.1780 C   0  0  0  0  0  0  0  0  0  0  0  0
    7.5310   12.1660   25.5650 C   0  0  0  0  0  0  0  0  0  0  0  0
    6.8520   13.1090   26.3780 C   0  0  0  0  0  0  0  0  0  0  0  0
    5.8270   12.7310   27.2420 C   0  0  0  0  0  0  0  0  0  0  0  0
    5.4530   11.4040   27.3160 C   0  0  0  0  0  0  0  0  0  0  0  0
    6.1070   10.4730   26.5270 C   0  0  0  0  0  0  0  0  0  0  0  0
    7.1300   10.8230   25.6600 C   0  0  0  0  0  0  0  0  0  0  0  0
    7.6870    9.8510   24.9500 N   0  0  0  0  0  0  0  0  0  0  0  0
  1  2  1  0
  2  3  1  0
  3  4  2  0
  4  5  1  0
  5  6  1  0
  6  7  1  0
  7  8  2  0
  9  7  1  1
  9 10  1  0
 10 11  1  0
 12 11  1  1
 12 13  1  0
 13 14  1  0
 12 15  1  0
  5 16  2  0
 16 17  1  0
 17 18  2  0
 18 19  1  0
 19 20  2  0
 20 21  1  0
 21 22  2  0
 22  3  1  0
 14  9  1  0
 21 16  1  0
 15  9  1  0
A    1
 C1 
A    2
 C2 
A    3
 C3 
A    4
 C4 
A    5
 C5 
A    6
 N1 
A    7
 C6 
A    8
 O1 
A    9
 C7 
A   10
 C8 
A   11
 C9 
A   12
 C10
A   13
 C11
A   14
 O2 
A   15
 C12
A   16
 C13
A   17
 C14
A   18
 C15
A   19
 C16
A   20
 C17
A   21
 C18
A   22
 N2 
M  END
>  <similarity>  (14) 
1.0

>  <smiles>  (14) 
CCc1cc(NC(=O)C23CCC(CO2)C3)c2ccccc2n1

>  <cmpd_id>  (14) 
ENAMINE:Z3543504280

>  <used_subnode>  (14) 
c1ccc2ncccc2c1

>  <used_synthon>  (14) 
[Xe]C12CCC(CO1)C2

>  <ref_subnode>  (14) 
c1ccc2ncccc2c1

>  <ref_synthon>  (14) 
O=C1CCCN1[Xe]

>  <fragmentA>  (14) 
x1097_1A

>  <fragmentB>  (14) 
x0528_0A

>  <HA>  (14) 
22

>  <HBD>  (14) 
1

>  <HBA>  (14) 
3

>  <MW>  (14) 
296.15247788000005

>  <TPSA>  (14) 
51.22

>  <LogP>  (14) 
3.304800000000002

>  <RBs>  (14) 
3

>  <G_bound>  (14) 
-8.25947554560968

>  <G_unbound>  (14) 
0.3178202039290126

>  <deltaG>  (14) 
-8.577295749538694

>  <comRMSD>  (14) 
0.8517596827831121

>  <substructure_overlap_check>  (14) 
True

>  <sucos>  (14) 
0.662674621450951

>  <interactions>  (14) 
Hydrophobic_TYR-90,Hydrophobic_PRO-107,Hydrophobic_VAL-124,Hydrophobic_TYR-89,Hydrophobic_HIS-21,HBAcceptor_SER-105,HBAcceptor_SER-87,HBDonor_SER-87

>  <total_num_ints>  (14) 
8

>  <total_num_ints_nonhyd>  (14) 
3

>  <num_uniq_frag_ints>  (14) 
4

>  <num_repl_uniq_ints>  (14) 
3

>  <num_uniq_ints_lost>  (14) 
1

>  <num_new_uniq_ints>  (14) 
5

>  <int_check>  (14) 
True

>  <original SMILES>  (14) 
CCc1cc(NC(=O)C23CCC(CO2)C3)c2ccccc2n1

>  <original_name>  (14) 
x1097_1A-x0528_0A_1172_B1X

>  <ref_mols>  (14) 
Ax1097a,Ax0528a

>  <ref_pdb>  (14) 
Ax0310a

>  <rationale>  (14) 
FragNet: 1 round bioisosteric merging incl c1ccc2ncccc2c1 and [Xe]C12CCC(CO1)C2 replacing O=C1CCCN1[Xe]

$$$$
x1097_1A-x0528_0A_602_B1X
     RDKit          3D

 20 22  0  0  0  0  0  0  0  0999 V2000
    9.7400    9.1960   22.9530 C   0  0  0  0  0  0  0  0  0  0  0  0
    9.0920   10.2330   23.8190 C   0  0  0  0  0  0  0  0  0  0  0  0
    9.6300   11.4830   23.8100 C   0  0  0  0  0  0  0  0  0  0  0  0
    9.0880   12.4770   24.6020 C   0  0  0  0  0  0  0  0  0  0  0  0
    9.7190   13.7220   24.5700 C   0  0  0  0  0  0  0  0  0  0  0  0
    9.3110   14.5840   25.3410 O   0  0  0  0  0  0  0  0  0  0  0  0
   10.7920   13.8660   23.6670 N   0  0  0  0  0  0  0  0  0  0  0  0
   12.0340   14.5650   24.0290 C   0  0  0  0  0  0  0  0  0  0  0  0
   12.7320   14.9380   22.7340 C   0  0  0  0  0  0  0  0  0  0  0  0
   11.8260   15.6600   21.8940 N   0  0  0  0  0  0  0  0  0  0  0  0
   10.6910   14.9850   21.6070 C   0  0  0  0  0  0  0  0  0  0  0  0
    9.8220   15.4910   20.8980 O   0  0  0  0  0  0  0  0  0  0  0  0
   10.5910   13.7210   22.2310 C   0  0  0  0  0  0  0  0  0  0  0  0
    7.9490   12.2120   25.4150 C   0  0  0  0  0  0  0  0  0  0  0  0
    7.2490   13.2230   26.3270 C   0  0  0  0  0  0  0  0  0  0  0  0
    6.1480   12.7920   27.0590 C   0  0  0  0  0  0  0  0  0  0  0  0
    5.6610   11.3600   26.9500 C   0  0  0  0  0  0  0  0  0  0  0  0
    6.3160   10.4750   26.1170 C   0  0  0  0  0  0  0  0  0  0  0  0
    7.4450   10.8840   25.3600 C   0  0  0  0  0  0  0  0  0  0  0  0
    8.0160    9.9200   24.5780 N   0  0  0  0  0  0  0  0  0  0  0  0
  1  2  1  0
  2  3  2  0
  3  4  1  0
  4  5  1  0
  5  6  2  0
  5  7  1  0
  7  8  1  0
  8  9  1  0
  9 10  1  0
 10 11  1  0
 11 12  2  0
 11 13  1  0
  4 14  2  0
 14 15  1  0
 15 16  2  0
 16 17  1  0
 17 18  2  0
 18 19  1  0
 19 20  2  0
 20  2  1  0
 13  7  1  0
 19 14  1  0
A    1
 C1 
A    2
 C2 
A    3
 C3 
A    4
 C4 
A    5
 C5 
A    6
 O1 
A    7
 N1 
A    8
 C6 
A    9
 C7 
A   10
 N2 
A   11
 C8 
A   12
 O2 
A   13
 C9 
A   14
 C10
A   15
 C11
A   16
 C12
A   17
 C13
A   18
 C14
A   19
 C15
A   20
 N3 
M  END
>  <similarity>  (15) 
1.0

>  <smiles>  (15) 
Cc1cc(C(=O)N2CCNC(=O)C2)c2ccccc2n1

>  <cmpd_id>  (15) 
ENAMINE:Z31602578

>  <used_subnode>  (15) 
c1ccc2ncccc2c1

>  <used_synthon>  (15) 
O=C1CN([Xe])CCN1

>  <ref_subnode>  (15) 
c1ccc2ncccc2c1

>  <ref_synthon>  (15) 
O=C1NCCC1[Xe]

>  <fragmentA>  (15) 
x1097_1A

>  <fragmentB>  (15) 
x0528_0A

>  <HA>  (15) 
20

>  <HBD>  (15) 
1

>  <HBA>  (15) 
3

>  <MW>  (15) 
269.11642672

>  <TPSA>  (15) 
62.300000000000004

>  <LogP>  (15) 
1.1152199999999997

>  <RBs>  (15) 
1

>  <G_bound>  (15) 
-8.28772980191282

>  <G_unbound>  (15) 
0.2633928611805892

>  <deltaG>  (15) 
-8.551122663093409

>  <comRMSD>  (15) 
0.6974385142349686

>  <substructure_overlap_check>  (15) 
True

>  <sucos>  (15) 
0.6923888955819634

>  <interactions>  (15) 
Hydrophobic_PRO-107,Hydrophobic_VAL-124,HBAcceptor_SER-87,HBDonor_SER-87

>  <total_num_ints>  (15) 
4

>  <total_num_ints_nonhyd>  (15) 
2

>  <num_uniq_frag_ints>  (15) 
4

>  <num_repl_uniq_ints>  (15) 
1

>  <num_uniq_ints_lost>  (15) 
3

>  <num_new_uniq_ints>  (15) 
3

>  <int_check>  (15) 
True

>  <original SMILES>  (15) 
Cc1cc(C(=O)N2CCNC(=O)C2)c2ccccc2n1

>  <original_name>  (15) 
x1097_1A-x0528_0A_602_B1X

>  <ref_mols>  (15) 
Ax1097a,Ax0528a

>  <ref_pdb>  (15) 
Ax0310a

>  <rationale>  (15) 
FragNet: 1 round bioisosteric merging incl c1ccc2ncccc2c1 and O=C1CN([Xe])CCN1 replacing O=C1NCCC1[Xe]

$$$$
x1097_1A-x0528_0A_587_B1X
     RDKit          3D

 20 22  0  0  0  0  0  0  0  0999 V2000
    9.6980    9.1330   23.0640 C   0  0  0  0  0  0  0  0  0  0  0  0
    8.9910   10.1710   23.8900 C   0  0  0  0  0  0  0  0  0  0  0  0
    9.4070   11.4820   23.7820 C   0  0  0  0  0  0  0  0  0  0  0  0
    8.7830   12.4760   24.5230 C   0  0  0  0  0  0  0  0  0  0  0  0
    9.1840   13.8240   24.4270 C   0  0  0  0  0  0  0  0  0  0  0  0
   10.6110   13.9500   24.6850 N   0  0  0  0  0  0  0  0  0  0  0  0
   11.4470   13.3570   23.6410 C   0  0  2  0  0  0  0  0  0  0  0  0
   12.6920   13.9040   23.7260 C   0  0  0  0  0  0  0  0  0  0  0  0
   12.9800   15.1120   22.8300 C   0  0  0  0  0  0  0  0  0  0  0  0
   11.8520   15.6560   22.1230 N   0  0  0  0  0  0  0  0  0  0  0  0
   10.8110   14.8720   21.8250 C   0  0  0  0  0  0  0  0  0  0  0  0
    9.8250   15.3240   21.2430 O   0  0  0  0  0  0  0  0  0  0  0  0
   10.9540   13.5590   22.2180 C   0  0  0  0  0  0  0  0  0  0  0  0
    7.7300   12.1120   25.3760 C   0  0  0  0  0  0  0  0  0  0  0  0
    6.9660   13.0890   26.2430 C   0  0  0  0  0  0  0  0  0  0  0  0
    5.8330   12.6600   27.1470 C   0  0  0  0  0  0  0  0  0  0  0  0
    5.5540   11.3130   27.1130 C   0  0  0  0  0  0  0  0  0  0  0  0
    6.2800   10.4310   26.2980 C   0  0  0  0  0  0  0  0  0  0  0  0
    7.3460   10.7690   25.4410 C   0  0  0  0  0  0  0  0  0  0  0  0
    7.9670    9.8050   24.7070 N   0  0  0  0  0  0  0  0  0  0  0  0
  1  2  1  0
  2  3  2  0
  3  4  1  0
  4  5  1  0
  5  6  1  0
  7  6  1  1
  7  8  1  0
  8  9  1  0
  9 10  1  0
 10 11  1  0
 11 12  2  0
 11 13  1  0
  4 14  2  0
 14 15  1  0
 15 16  2  0
 16 17  1  0
 17 18  2  0
 18 19  1  0
 19 20  2  0
 20  2  1  0
 13  7  1  0
 19 14  1  0
A    1
 C1 
A    2
 C2 
A    3
 C3 
A    4
 C4 
A    5
 C5 
A    6
 N1 
A    7
 C6 
A    8
 C7 
A    9
 C8 
A   10
 N2 
A   11
 C9 
A   12
 O1 
A   13
 C10
A   14
 C11
A   15
 C12
A   16
 C13
A   17
 C14
A   18
 C15
A   19
 C16
A   20
 N3 
M  END
>  <similarity>  (16) 
1.0

>  <smiles>  (16) 
Cc1cc(CNC2CCNC(=O)C2)c2ccccc2n1

>  <cmpd_id>  (16) 
ENAMINE:Z4197519806

>  <used_subnode>  (16) 
c1ccc2ncccc2c1

>  <used_synthon>  (16) 
O=C1CC([Xe])CCN1

>  <ref_subnode>  (16) 
c1ccc2ncccc2c1

>  <ref_synthon>  (16) 
O=C1NCCC1[Xe]

>  <fragmentA>  (16) 
x1097_1A

>  <fragmentB>  (16) 
x0528_0A

>  <HA>  (16) 
20

>  <HBD>  (16) 
2

>  <HBA>  (16) 
3

>  <MW>  (16) 
269.152812228

>  <TPSA>  (16) 
54.019999999999996

>  <LogP>  (16) 
1.9114199999999997

>  <RBs>  (16) 
3

>  <G_bound>  (16) 
-7.180321267952247

>  <G_unbound>  (16) 
0.4466062799376542

>  <deltaG>  (16) 
-7.626927547889902

>  <comRMSD>  (16) 
0.4775591403327825

>  <substructure_overlap_check>  (16) 
True

>  <sucos>  (16) 
0.717152718363808

>  <interactions>  (16) 
Hydrophobic_PRO-107,Hydrophobic_VAL-124,Hydrophobic_HIS-21,HBAcceptor_SER-105,HBAcceptor_SER-87,HBDonor_SER-87

>  <total_num_ints>  (16) 
6

>  <total_num_ints_nonhyd>  (16) 
3

>  <num_uniq_frag_ints>  (16) 
4

>  <num_repl_uniq_ints>  (16) 
3

>  <num_uniq_ints_lost>  (16) 
1

>  <num_new_uniq_ints>  (16) 
3

>  <int_check>  (16) 
True

>  <original SMILES>  (16) 
Cc1cc(CNC2CCNC(=O)C2)c2ccccc2n1

>  <original_name>  (16) 
x1097_1A-x0528_0A_587_B1X

>  <ref_mols>  (16) 
Ax1097a,Ax0528a

>  <ref_pdb>  (16) 
Ax0310a

>  <rationale>  (16) 
FragNet: 1 round bioisosteric merging incl c1ccc2ncccc2c1 and O=C1CC([Xe])CCN1 replacing O=C1NCCC1[Xe]

$$$$
x1097_1A-x0528_0A_496_B1X
     RDKit          3D

 19 21  0  0  0  0  0  0  0  0999 V2000
   10.4300   15.7130   21.1390 O   0  0  0  0  0  0  0  0  0  0  0  0
   11.1940   15.1490   21.9020 C   0  0  0  0  0  0  0  0  0  0  0  0
   11.5390   13.6990   21.9340 C   0  0  0  0  0  0  0  0  0  0  0  0
   12.3590   13.5190   23.2050 C   0  0  0  0  0  0  0  0  0  0  0  0
   12.0110   14.7400   23.9920 C   0  0  2  0  0  0  0  0  0  0  0  0
   10.7610   14.4660   24.8950 C   0  0  0  0  0  0  0  0  0  0  0  0
    9.5520   13.8700   24.2290 N   0  0  0  0  0  0  0  0  0  0  0  0
    9.0000   12.5560   24.4280 C   0  0  0  0  0  0  0  0  0  0  0  0
    9.5340   11.4610   23.7460 C   0  0  0  0  0  0  0  0  0  0  0  0
    8.9960   10.2120   23.9550 C   0  0  0  0  0  0  0  0  0  0  0  0
    9.4950    9.1270   23.3190 O   0  0  0  0  0  0  0  0  0  0  0  0
    7.9830    9.9260   24.7580 N   0  0  0  0  0  0  0  0  0  0  0  0
    7.4350   10.9300   25.4290 C   0  0  0  0  0  0  0  0  0  0  0  0
    6.3730   10.6120   26.2690 C   0  0  0  0  0  0  0  0  0  0  0  0
    5.7160   11.5650   27.0270 C   0  0  0  0  0  0  0  0  0  0  0  0
    6.1270   12.8820   26.9490 C   0  0  0  0  0  0  0  0  0  0  0  0
    7.1940   13.2360   26.1090 C   0  0  0  0  0  0  0  0  0  0  0  0
    7.8840   12.2750   25.3220 C   0  0  0  0  0  0  0  0  0  0  0  0
   11.9140   15.7000   22.9170 N   0  0  0  0  0  0  0  0  0  0  0  0
  1  2  2  0
  2  3  1  0
  3  4  1  0
  4  5  1  0
  5  6  1  6
  6  7  1  0
  7  8  1  0
  8  9  2  0
  9 10  1  0
 10 11  1  0
 10 12  2  0
 12 13  1  0
 13 14  2  0
 14 15  1  0
 15 16  2  0
 16 17  1  0
 17 18  2  0
  5 19  1  0
 19  2  1  0
 18  8  1  0
 18 13  1  0
A    1
 O1 
A    2
 C1 
A    3
 C2 
A    4
 C3 
A    5
 C4 
A    6
 C5 
A    7
 N1 
A    8
 C6 
A    9
 C7 
A   10
 C8 
A   11
 O2 
A   12
 N2 
A   13
 C9 
A   14
 C10
A   15
 C11
A   16
 C12
A   17
 C13
A   18
 C14
A   19
 N3 
M  END
>  <similarity>  (17) 
1.0

>  <smiles>  (17) 
O=C1CCC(CNc2cc(O)nc3ccccc23)N1

>  <cmpd_id>  (17) 
ENAMINE:Z4230608981

>  <used_subnode>  (17) 
c1ccc2ncccc2c1

>  <used_synthon>  (17) 
O=C1CCC([Xe])N1

>  <ref_subnode>  (17) 
c1ccc2ncccc2c1

>  <ref_synthon>  (17) 
O=C1NCCC1[Xe]

>  <fragmentA>  (17) 
x1097_1A

>  <fragmentB>  (17) 
x0528_0A

>  <HA>  (17) 
19

>  <HBD>  (17) 
3

>  <HBA>  (17) 
4

>  <MW>  (17) 
257.11642672

>  <TPSA>  (17) 
74.25

>  <LogP>  (17) 
1.6308999999999998

>  <RBs>  (17) 
3

>  <G_bound>  (17) 
-4.199354895465364

>  <G_unbound>  (17) 
0.5820341537627455

>  <deltaG>  (17) 
-4.7813890492281095

>  <comRMSD>  (17) 
0.6940897025180092

>  <substructure_overlap_check>  (17) 
True

>  <sucos>  (17) 
0.7502528058796952

>  <interactions>  (17) 
Hydrophobic_PRO-107,Hydrophobic_HIS-21,HBDonor_GLU-106,HBAcceptor_SER-105,HBDonor_SER-87

>  <total_num_ints>  (17) 
5

>  <total_num_ints_nonhyd>  (17) 
3

>  <num_uniq_frag_ints>  (17) 
4

>  <num_repl_uniq_ints>  (17) 
3

>  <num_uniq_ints_lost>  (17) 
1

>  <num_new_uniq_ints>  (17) 
2

>  <int_check>  (17) 
True

>  <original SMILES>  (17) 
O=C1CCC(CNc2cc(O)nc3ccccc23)N1

>  <original_name>  (17) 
x1097_1A-x0528_0A_496_B1X

>  <ref_mols>  (17) 
Ax1097a,Ax0528a

>  <ref_pdb>  (17) 
Ax0310a

>  <rationale>  (17) 
FragNet: 1 round bioisosteric merging incl c1ccc2ncccc2c1 and O=C1CCC([Xe])N1 replacing O=C1NCCC1[Xe]

$$$$
