ver_1.2
     RDKit          2D

  0  0  0  0  0  0  0  0  0  0999 V2000
M  END
>  <ref_url>  (1) 
https://pubs.acs.org/doi/10.1021/acs.jcim.3c00276?fig=tgr1&ref=pdf

>  <submitter_name>  (1) 
Steph Wills

>  <submitter_institution>  (1) 
University of Oxford

>  <submitter_email>  (1) 
stephanie.wills@balliol.ox.ac.uk

>  <generation_date>  (1) 
2024-02-23

>  <method>  (1) 
FragNetPipes

>  <original SMILES>  (1) 
SMILES

>  <original_name>  (1) 
a name

>  <ref_mols>  (1) 
ref fragments

>  <ref_pdb>  (1) 
ref pdb

$$$$
x0365_0A-x0310_0A_2938_B1X
     RDKit          3D

 19 20  0  0  0  0  0  0  0  0999 V2000
   12.1670   13.9910   22.4010 C   0  0  0  0  0  0  0  0  0  0  0  0
   11.1500   13.4820   23.3810 C   0  0  0  0  0  0  0  0  0  0  0  0
   11.0240   13.9890   24.4880 O   0  0  0  0  0  0  0  0  0  0  0  0
   10.4040   12.4290   22.9210 N   0  0  0  0  0  0  0  0  0  0  0  0
    9.3620   11.8830   23.6720 C   0  0  0  0  0  0  0  0  0  0  0  0
    9.2760   10.4850   23.7490 C   0  0  0  0  0  0  0  0  0  0  0  0
    8.2590    9.8950   24.4920 C   0  0  0  0  0  0  0  0  0  0  0  0
    7.2740   10.7990   25.1910 C   0  0  0  0  0  0  0  0  0  0  0  0
    6.1870   10.1720   25.9540 N   0  0  0  0  0  0  0  0  0  0  0  0
    5.4440   11.0340   26.8820 C   0  0  0  0  0  0  0  0  0  0  0  0
    6.1160   11.2230   28.1950 C   0  0  0  0  0  0  0  0  0  0  0  0
    6.2220   10.1750   29.1600 C   0  0  0  0  0  0  0  0  0  0  0  0
    6.8740   10.5010   30.3350 C   0  0  0  0  0  0  0  0  0  0  0  0
    7.4020   11.7640   30.5890 C   0  0  0  0  0  0  0  0  0  0  0  0
    7.2850   12.7590   29.6410 C   0  0  0  0  0  0  0  0  0  0  0  0
    7.7910   13.9760   29.8800 F   0  0  0  0  0  0  0  0  0  0  0  0
    6.6470   12.4950   28.4480 C   0  0  0  0  0  0  0  0  0  0  0  0
    7.3860   12.2410   25.0980 N   0  0  0  0  0  0  0  0  0  0  0  0
    8.4240   12.6840   24.3450 C   0  0  0  0  0  0  0  0  0  0  0  0
  1  2  1  0
  2  3  2  0
  2  4  1  0
  4  5  1  0
  5  6  2  0
  6  7  1  0
  7  8  2  0
  8  9  1  0
  9 10  1  0
 10 11  1  0
 11 12  2  0
 12 13  1  0
 13 14  2  0
 14 15  1  0
 15 16  1  0
 15 17  2  0
  8 18  1  0
 18 19  2  0
 19  5  1  0
 17 11  1  0
A    1
 C1 
A    2
 C2 
A    3
 O1 
A    4
 N1 
A    5
 C3 
A    6
 C4 
A    7
 C5 
A    8
 C6 
A    9
 N2 
A   10
 C7 
A   11
 C8 
A   12
 C9 
A   13
 C10
A   14
 C11
A   15
 C12
A   16
 F1 
A   17
 C13
A   18
 N3 
A   19
 C14
M  END
>  <similarity>  (2) 
1.0

>  <smiles>  (2) 
CC(=O)Nc1ccc(NCc2cccc(F)c2)nc1

>  <cmpd_id>  (2) 
ENAMINE:PV-001925352666,ENAMINE:PV-002521794908

>  <used_subnode>  (2) 
NCc1ccccc1

>  <used_synthon>  (2) 
CC(=O)N[Xe]

>  <ref_subnode>  (2) 
NCc1ccccc1

>  <ref_synthon>  (2) 
N#CCC(=O)N[Xe]

>  <fragmentA>  (2) 
x0365_0A

>  <fragmentB>  (2) 
x0310_0A

>  <HA>  (2) 
19

>  <HBD>  (2) 
2

>  <HBA>  (2) 
3

>  <MW>  (2) 
259.112090288

>  <TPSA>  (2) 
54.02

>  <LogP>  (2) 
2.791200000000001

>  <RBs>  (2) 
4

>  <G_bound>  (2) 
-7.918942006792992

>  <G_unbound>  (2) 
0.3884542530865819

>  <deltaG>  (2) 
-8.307396259879575

>  <comRMSD>  (2) 
0.4835129150752493

>  <substructure_overlap_check>  (2) 
True

>  <sucos>  (2) 
0.6353215969736293

>  <interactions>  (2) 
Hydrophobic_PRO-107,Hydrophobic_HIS-21,HBDonor_SER-125,Hydrophobic_GLU-106,HBDonor_SER-105

>  <total_num_ints>  (2) 
5

>  <total_num_ints_nonhyd>  (2) 
2

>  <num_uniq_frag_ints>  (2) 
6

>  <num_repl_uniq_ints>  (2) 
5

>  <num_uniq_ints_lost>  (2) 
1

>  <num_new_uniq_ints>  (2) 
0

>  <int_check>  (2) 
True

>  <original SMILES>  (2) 
CC(=O)Nc1ccc(NCc2cccc(F)c2)nc1

>  <original_name>  (2) 
x0365_0A-x0310_0A_2938_B1X

>  <ref_mols>  (2) 
Ax0365a,Ax0310a

>  <ref_pdb>  (2) 
Ax0310a

>  <rationale>  (2) 
FragNet: 1 round bioisosteric merging incl NCc1ccccc1 and CC(=O)N[Xe] replacing N#CCC(=O)N[Xe]

$$$$
x0365_0A-x0310_0A_3019_B1X
     RDKit          3D

 20 21  0  0  0  0  0  0  0  0999 V2000
    9.4200   12.2400   31.7360 C   0  0  0  0  0  0  0  0  0  0  0  0
    8.0330   11.9320   31.7480 O   0  0  0  0  0  0  0  0  0  0  0  0
    7.4210   11.7860   30.5350 C   0  0  0  0  0  0  0  0  0  0  0  0
    6.8830   10.5030   30.3170 C   0  0  0  0  0  0  0  0  0  0  0  0
    6.2400   10.2550   29.1080 C   0  0  0  0  0  0  0  0  0  0  0  0
    6.1290   11.2470   28.1330 C   0  0  0  0  0  0  0  0  0  0  0  0
    5.4170   10.9160   26.8430 C   0  0  0  0  0  0  0  0  0  0  0  0
    6.2550   10.0880   25.9940 N   0  0  0  0  0  0  0  0  0  0  0  0
    7.2890   10.6610   25.2410 C   0  0  0  0  0  0  0  0  0  0  0  0
    7.3950   12.1510   25.1960 C   0  0  0  0  0  0  0  0  0  0  0  0
    8.4150   12.7150   24.4350 C   0  0  0  0  0  0  0  0  0  0  0  0
    9.3100   11.8980   23.7380 C   0  0  0  0  0  0  0  0  0  0  0  0
   10.3580   12.4210   22.9660 N   0  0  0  0  0  0  0  0  0  0  0  0
   11.1300   13.4690   23.4020 C   0  0  0  0  0  0  0  0  0  0  0  0
   12.1420   13.9510   22.3990 C   0  0  0  0  0  0  0  0  0  0  0  0
   11.0250   14.0060   24.4990 O   0  0  0  0  0  0  0  0  0  0  0  0
    9.1400   10.5190   23.8380 C   0  0  0  0  0  0  0  0  0  0  0  0
    8.1690    9.9040   24.5570 N   0  0  0  0  0  0  0  0  0  0  0  0
    6.6650   12.5110   28.3600 C   0  0  0  0  0  0  0  0  0  0  0  0
    7.3120   12.7820   29.5630 C   0  0  0  0  0  0  0  0  0  0  0  0
  1  2  1  0
  2  3  1  0
  3  4  2  0
  4  5  1  0
  5  6  2  0
  6  7  1  0
  7  8  1  0
  8  9  1  0
  9 10  2  0
 10 11  1  0
 11 12  2  0
 12 13  1  0
 13 14  1  0
 14 15  1  0
 14 16  2  0
 12 17  1  0
 17 18  2  0
  6 19  1  0
 19 20  2  0
 20  3  1  0
 18  9  1  0
A    1
 C1 
A    2
 O1 
A    3
 C2 
A    4
 C3 
A    5
 C4 
A    6
 C5 
A    7
 C6 
A    8
 N1 
A    9
 C7 
A   10
 C8 
A   11
 C9 
A   12
 C10
A   13
 N2 
A   14
 C11
A   15
 C12
A   16
 O2 
A   17
 C13
A   18
 N3 
A   19
 C14
A   20
 C15
M  END
>  <similarity>  (3) 
1.0

>  <smiles>  (3) 
COc1ccc(CNc2ccc(NC(C)=O)cn2)cc1

>  <cmpd_id>  (3) 
ENAMINE:PV-001925352632

>  <used_subnode>  (3) 
NCc1ccccc1

>  <used_synthon>  (3) 
CC(=O)N[Xe]

>  <ref_subnode>  (3) 
NCc1ccccc1

>  <ref_synthon>  (3) 
N#CCC(=O)N[Xe]

>  <fragmentA>  (3) 
x0365_0A

>  <fragmentB>  (3) 
x0310_0A

>  <HA>  (3) 
20

>  <HBD>  (3) 
2

>  <HBA>  (3) 
4

>  <MW>  (3) 
271.132076784

>  <TPSA>  (3) 
63.25

>  <LogP>  (3) 
2.660700000000001

>  <RBs>  (3) 
5

>  <G_bound>  (3) 
-8.484409828193506

>  <G_unbound>  (3) 
0.2531961732708646

>  <deltaG>  (3) 
-8.737606001464371

>  <comRMSD>  (3) 
0.4717336023399064

>  <substructure_overlap_check>  (3) 
True

>  <sucos>  (3) 
0.7082975859508682

>  <interactions>  (3) 
Hydrophobic_PRO-107,Hydrophobic_HIS-21,HBDonor_SER-125,Hydrophobic_GLU-106,HBDonor_SER-105

>  <total_num_ints>  (3) 
5

>  <total_num_ints_nonhyd>  (3) 
2

>  <num_uniq_frag_ints>  (3) 
6

>  <num_repl_uniq_ints>  (3) 
5

>  <num_uniq_ints_lost>  (3) 
1

>  <num_new_uniq_ints>  (3) 
0

>  <int_check>  (3) 
True

>  <original SMILES>  (3) 
COc1ccc(CNc2ccc(NC(C)=O)cn2)cc1

>  <original_name>  (3) 
x0365_0A-x0310_0A_3019_B1X

>  <ref_mols>  (3) 
Ax0365a,Ax0310a

>  <ref_pdb>  (3) 
Ax0310a

>  <rationale>  (3) 
FragNet: 1 round bioisosteric merging incl NCc1ccccc1 and CC(=O)N[Xe] replacing N#CCC(=O)N[Xe]

$$$$
x0556_0A-x0566_0A_158_B1X
     RDKit          3D

 21 23  0  0  0  0  0  0  0  0999 V2000
    5.7160    4.3690   29.1120 C   0  0  0  0  0  0  0  0  0  0  0  0
    4.8710    5.4840   28.5450 C   0  0  0  0  0  0  0  0  0  0  0  0
    3.7390    5.8810   29.4880 C   0  0  0  0  0  0  0  0  0  0  0  0
    3.5380    5.3640   30.5800 O   0  0  0  0  0  0  0  0  0  0  0  0
    2.9560    6.8890   28.9710 N   0  0  0  0  0  0  0  0  0  0  0  0
    3.3300    8.3130   29.0650 C   0  0  2  0  0  0  0  0  0  0  0  0
    3.2680    8.9900   27.8570 C   0  0  0  0  0  0  0  0  0  0  0  0
    4.4510    9.8990   28.3030 C   0  0  2  0  0  0  0  0  0  0  0  0
    4.0720   11.0430   29.0150 C   0  0  0  0  0  0  0  0  0  0  0  0
    5.3880   10.2380   27.2120 N   0  0  0  0  0  0  0  0  0  0  0  0
    5.7530   11.5330   26.7990 C   0  0  0  0  0  0  0  0  0  0  0  0
    5.2470   12.5840   27.1720 O   0  0  0  0  0  0  0  0  0  0  0  0
    6.8120   11.4130   25.8630 C   0  0  0  0  0  0  0  0  0  0  0  0
    7.1410   10.2170   25.4110 C   0  0  0  0  0  0  0  0  0  0  0  0
    8.1620   10.3720   24.5630 C   0  0  0  0  0  0  0  0  0  0  0  0
    8.8900    9.5280   23.8280 O   0  0  0  0  0  0  0  0  0  0  0  0
    9.7520   10.3570   23.1970 C   0  0  0  0  0  0  0  0  0  0  0  0
    9.5760   11.7020   23.5250 C   0  0  0  0  0  0  0  0  0  0  0  0
    8.5050   11.6570   24.4400 C   0  0  0  0  0  0  0  0  0  0  0  0
    7.6540   12.3710   25.2710 N   0  0  0  0  0  0  0  0  0  0  0  0
    4.8360    8.6420   29.1080 C   0  0  0  0  0  0  0  0  0  0  0  0
  1  2  1  0
  2  3  1  0
  3  4  2  0
  3  5  1  0
  6  5  1  6
  6  7  1  0
  7  8  1  0
  8  9  1  1
  8 10  1  0
 10 11  1  0
 11 12  2  0
 11 13  1  0
 13 14  2  0
 14 15  1  0
 15 16  1  0
 16 17  1  0
 17 18  2  0
 18 19  1  0
 19 20  1  0
  8 21  1  0
 21  6  1  0
 20 13  1  0
 19 15  2  0
A    1
 C1 
A    2
 C2 
A    3
 C3 
A    4
 O1 
A    5
 N1 
A    6
 C4 
A    7
 C5 
A    8
 C6 
A    9
 C7 
A   10
 N2 
A   11
 C8 
A   12
 O2 
A   13
 C9 
A   14
 C10
A   15
 C11
A   16
 O3 
A   17
 C12
A   18
 C13
A   19
 C14
A   20
 N3 
A   21
 C15
M  END
>  <similarity>  (4) 
1.0

>  <smiles>  (4) 
CCC(=O)NC1CC(C)(NC(=O)c2cc3occc3[nH]2)C1

>  <cmpd_id>  (4) 
ENAMINE:PV-003124083171

>  <used_subnode>  (4) 
O=CNC1CCC1

>  <used_synthon>  (4) 
[Xe]c1cc2occc2[nH]1

>  <ref_subnode>  (4) 
O=CNC1CCC1

>  <ref_synthon>  (4) 
[Xe]c1cccc2cc[nH]c12

>  <fragmentA>  (4) 
x0556_0A

>  <fragmentB>  (4) 
x0566_0A

>  <HA>  (4) 
21

>  <HBD>  (4) 
3

>  <HBA>  (4) 
3

>  <MW>  (4) 
289.142641468

>  <TPSA>  (4) 
87.13

>  <LogP>  (4) 
1.938

>  <RBs>  (4) 
4

>  <G_bound>  (4) 
-7.545301420016418

>  <G_unbound>  (4) 
0.32127180270430633

>  <deltaG>  (4) 
-7.866573222720724

>  <comRMSD>  (4) 
0.9380622827596891

>  <substructure_overlap_check>  (4) 
True

>  <sucos>  (4) 
0.5513871354663942

>  <interactions>  (4) 
Hydrophobic_PRO-107,Hydrophobic_GLU-106,HBAcceptor_SER-105,HBDonor_SER-105,Hydrophobic_HIS-104

>  <total_num_ints>  (4) 
5

>  <total_num_ints_nonhyd>  (4) 
2

>  <num_uniq_frag_ints>  (4) 
5

>  <num_repl_uniq_ints>  (4) 
4

>  <num_uniq_ints_lost>  (4) 
1

>  <num_new_uniq_ints>  (4) 
1

>  <int_check>  (4) 
True

>  <original SMILES>  (4) 
CCC(=O)NC1CC(C)(NC(=O)c2cc3occc3[nH]2)C1

>  <original_name>  (4) 
x0556_0A-x0566_0A_158_B1X

>  <ref_mols>  (4) 
Ax0556a,Ax0566a

>  <ref_pdb>  (4) 
Ax0310a

>  <rationale>  (4) 
FragNet: 1 round bioisosteric merging incl O=CNC1CCC1 and [Xe]c1cc2occc2[nH]1 replacing [Xe]c1cccc2cc[nH]c12

$$$$
x0365_0A-x0556_0A_1404_B1X
     RDKit          3D

 22 24  0  0  0  0  0  0  0  0999 V2000
    7.5650   14.3470   27.0570 C   0  0  0  0  0  0  0  0  0  0  0  0
    6.4610   13.5210   27.4090 O   0  0  0  0  0  0  0  0  0  0  0  0
    6.6420   12.5880   28.3940 C   0  0  0  0  0  0  0  0  0  0  0  0
    7.3760   12.8700   29.6990 C   0  0  0  0  0  0  0  0  0  0  0  0
    7.4460   11.6680   30.6430 C   0  0  0  0  0  0  0  0  0  0  0  0
    6.8810   10.4280   30.3210 C   0  0  0  0  0  0  0  0  0  0  0  0
    6.9690    9.2580   31.2770 C   0  0  0  0  0  0  0  0  0  0  0  0
    6.5420    7.9850   30.8810 C   0  0  0  0  0  0  0  0  0  0  0  0
    6.6310    6.9210   31.7750 C   0  0  0  0  0  0  0  0  0  0  0  0
    7.1130    7.0400   33.0290 N   0  0  0  0  0  0  0  0  0  0  0  0
    7.5220    8.2720   33.4020 C   0  0  0  0  0  0  0  0  0  0  0  0
    7.4720    9.3950   32.5760 C   0  0  0  0  0  0  0  0  0  0  0  0
    6.2290   10.2770   29.0930 C   0  0  0  0  0  0  0  0  0  0  0  0
    6.1060   11.3110   28.1510 C   0  0  0  0  0  0  0  0  0  0  0  0
    5.3730   10.9760   26.8830 C   0  0  0  0  0  0  0  0  0  0  0  0
    6.1390   10.0420   26.0630 N   0  0  0  0  0  0  0  0  0  0  0  0
    7.1970   10.5300   25.2810 C   0  0  0  0  0  0  0  0  0  0  0  0
    7.2920   11.9040   25.1400 C   0  0  0  0  0  0  0  0  0  0  0  0
    8.3030   12.4450   24.3670 C   0  0  0  0  0  0  0  0  0  0  0  0
    9.2080   11.6000   23.7470 C   0  0  0  0  0  0  0  0  0  0  0  0
    9.0600   10.2440   23.9310 C   0  0  0  0  0  0  0  0  0  0  0  0
    8.0820    9.6950   24.6780 N   0  0  0  0  0  0  0  0  0  0  0  0
  1  2  1  0
  2  3  1  0
  3  4  2  0
  4  5  1  0
  5  6  2  0
  6  7  1  0
  7  8  2  0
  8  9  1  0
  9 10  2  0
 10 11  1  0
 11 12  2  0
  6 13  1  0
 13 14  2  0
 14 15  1  0
 15 16  1  0
 16 17  1  0
 17 18  2  0
 18 19  1  0
 19 20  2  0
 20 21  1  0
 21 22  2  0
 14  3  1  0
 22 17  1  0
 12  7  1  0
A    1
 C1 
A    2
 O1 
A    3
 C2 
A    4
 C3 
A    5
 C4 
A    6
 C5 
A    7
 C6 
A    8
 C7 
A    9
 C8 
A   10
 N1 
A   11
 C9 
A   12
 C10
A   13
 C11
A   14
 C12
A   15
 C13
A   16
 N2 
A   17
 C14
A   18
 C15
A   19
 C16
A   20
 C17
A   21
 C18
A   22
 N3 
M  END
>  <similarity>  (5) 
1.0

>  <smiles>  (5) 
COc1ccc(-c2ccncc2)cc1CNc1ccccn1

>  <cmpd_id>  (5) 
ENAMINE:Z1728574613

>  <used_subnode>  (5) 
NCc1ccccc1

>  <used_synthon>  (5) 
[Xe]c1ccncc1

>  <ref_subnode>  (5) 
NCc1ccccc1

>  <ref_synthon>  (5) 
[Xe]n1cccn1

>  <fragmentA>  (5) 
x0365_0A

>  <fragmentB>  (5) 
x0556_0A

>  <HA>  (5) 
22

>  <HBD>  (5) 
1

>  <HBA>  (5) 
4

>  <MW>  (5) 
291.137162164

>  <TPSA>  (5) 
47.04

>  <LogP>  (5) 
3.7643000000000013

>  <RBs>  (5) 
5

>  <G_bound>  (5) 
-5.793780424778198

>  <G_unbound>  (5) 
0.34629343461597273

>  <deltaG>  (5) 
-6.140073859394171

>  <comRMSD>  (5) 
0.34785020775246184

>  <substructure_overlap_check>  (5) 
True

>  <sucos>  (5) 
0.6124905052411549

>  <interactions>  (5) 
Hydrophobic_PRO-107,Hydrophobic_GLU-106,HBAcceptor_SER-105,HBDonor_SER-105

>  <total_num_ints>  (5) 
4

>  <total_num_ints_nonhyd>  (5) 
2

>  <num_uniq_frag_ints>  (5) 
5

>  <num_repl_uniq_ints>  (5) 
3

>  <num_uniq_ints_lost>  (5) 
2

>  <num_new_uniq_ints>  (5) 
1

>  <int_check>  (5) 
True

>  <original SMILES>  (5) 
COc1ccc(-c2ccncc2)cc1CNc1ccccn1

>  <original_name>  (5) 
x0365_0A-x0556_0A_1404_B1X

>  <ref_mols>  (5) 
Ax0365a,Ax0556a

>  <ref_pdb>  (5) 
Ax0310a

>  <rationale>  (5) 
FragNet: 1 round bioisosteric merging incl NCc1ccccc1 and [Xe]c1ccncc1 replacing [Xe]n1cccn1

$$$$
x0556_0A-x0310_0A_4519_B1X
     RDKit          3D

 22 23  0  0  0  0  0  0  0  0999 V2000
    3.8520    5.8950   27.6500 C   0  0  0  0  0  0  0  0  0  0  0  0
    2.8640    6.8080   28.3570 C   0  0  0  0  0  0  0  0  0  0  0  0
    3.5000    8.0580   29.0180 C   0  0  2  0  0  0  0  0  0  0  0  0
    3.3850    8.8140   27.6920 C   0  0  0  0  0  0  0  0  0  0  0  0
    4.6650    9.6120   28.0900 C   0  0  2  0  0  0  0  0  0  0  0  0
    5.6780    9.7920   27.0100 N   0  0  0  0  0  0  0  0  0  0  0  0
    5.8940   11.0100   26.3900 C   0  0  0  0  0  0  0  0  0  0  0  0
    5.1510   11.9690   26.5600 O   0  0  0  0  0  0  0  0  0  0  0  0
    7.0180   11.1800   25.5180 C   0  0  0  0  0  0  0  0  0  0  0  0
    7.2130   12.5090   25.3200 C   0  0  0  0  0  0  0  0  0  0  0  0
    8.2620   12.9050   24.5030 C   0  0  0  0  0  0  0  0  0  0  0  0
    9.0780   11.9450   23.9120 C   0  0  0  0  0  0  0  0  0  0  0  0
   10.1110   12.4770   23.1400 N   0  0  0  0  0  0  0  0  0  0  0  0
   10.9010   13.4530   23.7060 C   0  0  0  0  0  0  0  0  0  0  0  0
   10.5560   14.1520   24.6450 O   0  0  0  0  0  0  0  0  0  0  0  0
   12.3060   13.6210   23.1280 C   0  0  0  0  0  0  0  0  0  0  0  0
   13.2740   13.7780   24.3110 C   0  0  0  0  0  0  0  0  0  0  0  0
   12.6880   12.3320   22.4140 C   0  0  0  0  0  0  0  0  0  0  0  0
   12.4130   14.8890   22.2550 C   0  0  0  0  0  0  0  0  0  0  0  0
    8.8820   10.6300   24.1000 N   0  0  0  0  0  0  0  0  0  0  0  0
    7.8510   10.2630   24.9040 C   0  0  0  0  0  0  0  0  0  0  0  0
    4.9920    8.4290   29.0260 C   0  0  0  0  0  0  0  0  0  0  0  0
  1  2  1  0
  3  2  1  6
  3  4  1  0
  4  5  1  0
  5  6  1  6
  6  7  1  0
  7  8  2  0
  7  9  1  0
  9 10  2  0
 10 11  1  0
 11 12  2  0
 12 13  1  0
 13 14  1  0
 14 15  2  0
 14 16  1  0
 16 17  1  0
 16 18  1  0
 16 19  1  0
 12 20  1  0
 20 21  2  0
  5 22  1  0
 22  3  1  0
 21  9  1  0
A    1
 C1 
A    2
 C2 
A    3
 C3 
A    4
 C4 
A    5
 C5 
A    6
 N1 
A    7
 C6 
A    8
 O1 
A    9
 C7 
A   10
 C8 
A   11
 C9 
A   12
 C10
A   13
 N2 
A   14
 C11
A   15
 O2 
A   16
 C12
A   17
 C13
A   18
 C14
A   19
 C15
A   20
 N3 
A   21
 C16
A   22
 C17
M  END
>  <similarity>  (6) 
1.0

>  <smiles>  (6) 
CCC1CC(NC(=O)c2ccc(NC(=O)C(C)(C)C)nc2)C1

>  <cmpd_id>  (6) 
ENAMINE:Z4179197232

>  <used_subnode>  (6) 
O=CNC1CCC1

>  <used_synthon>  (6) 
CC(C)(C)C(=O)N[Xe]

>  <ref_subnode>  (6) 
O=CNC1CCC1

>  <ref_synthon>  (6) 
N#CCC(=O)N[Xe]

>  <fragmentA>  (6) 
x0556_0A

>  <fragmentB>  (6) 
x0310_0A

>  <HA>  (6) 
22

>  <HBD>  (6) 
2

>  <HBA>  (6) 
3

>  <MW>  (6) 
303.19467704

>  <TPSA>  (6) 
71.09

>  <LogP>  (6) 
2.9846000000000013

>  <RBs>  (6) 
4

>  <G_bound>  (6) 
-10.67278991046966

>  <G_unbound>  (6) 
0.5743951551955933

>  <deltaG>  (6) 
-11.247185065665253

>  <comRMSD>  (6) 
0.7653524158207906

>  <substructure_overlap_check>  (6) 
True

>  <sucos>  (6) 
0.6201717186621979

>  <interactions>  (6) 
Hydrophobic_TYR-90,Hydrophobic_PRO-107,Hydrophobic_TYR-89,Hydrophobic_HIS-21,HBDonor_SER-125,Hydrophobic_GLU-106,Hydrophobic_CYS-110,HBDonor_SER-105,Hydrophobic_HIS-104

>  <total_num_ints>  (6) 
9

>  <total_num_ints_nonhyd>  (6) 
2

>  <num_uniq_frag_ints>  (6) 
8

>  <num_repl_uniq_ints>  (6) 
7

>  <num_uniq_ints_lost>  (6) 
1

>  <num_new_uniq_ints>  (6) 
2

>  <int_check>  (6) 
True

>  <original SMILES>  (6) 
CCC1CC(NC(=O)c2ccc(NC(=O)C(C)(C)C)nc2)C1

>  <original_name>  (6) 
x0556_0A-x0310_0A_4519_B1X

>  <ref_mols>  (6) 
Ax0556a,Ax0310a

>  <ref_pdb>  (6) 
Ax0310a

>  <rationale>  (6) 
FragNet: 1 round bioisosteric merging incl O=CNC1CCC1 and CC(C)(C)C(=O)N[Xe] replacing N#CCC(=O)N[Xe]

$$$$
x0556_0A-x0554_0A_328_B1X
     RDKit          3D

 26 29  0  0  0  0  0  0  0  0999 V2000
    0.9740   10.1890   27.9310 O   0  0  0  0  0  0  0  0  0  0  0  0
    0.5950    9.2850   28.6780 C   0  0  0  0  0  0  0  0  0  0  0  0
    1.1630    8.9850   29.9070 N   0  0  0  0  0  0  0  0  0  0  0  0
    2.4630    9.4720   30.3150 C   0  0  0  0  0  0  0  0  0  0  0  0
    3.5080    8.8250   29.4150 C   0  0  1  0  0  0  0  0  0  0  0  0
    3.5240    9.2620   27.9340 C   0  0  0  0  0  0  0  0  0  0  0  0
    5.0380    9.0260   28.0070 C   0  0  1  0  0  0  0  0  0  0  0  0
    5.9450    9.7670   27.0740 N   0  0  0  0  0  0  0  0  0  0  0  0
    5.8160   11.0870   26.6460 C   0  0  0  0  0  0  0  0  0  0  0  0
    4.8600   11.7810   26.9540 O   0  0  0  0  0  0  0  0  0  0  0  0
    6.8730   11.6590   25.7860 C   0  0  0  0  0  0  0  0  0  0  0  0
    7.0680   13.0300   25.7150 C   0  0  0  0  0  0  0  0  0  0  0  0
    8.0890   13.3020   24.8510 N   0  0  0  0  0  0  0  0  0  0  0  0
    8.5870   12.1380   24.3370 C   0  0  0  0  0  0  0  0  0  0  0  0
    9.6230   11.9540   23.4210 C   0  0  0  0  0  0  0  0  0  0  0  0
    9.9290   10.6520   23.0600 C   0  0  0  0  0  0  0  0  0  0  0  0
    9.2470    9.5910   23.5860 C   0  0  0  0  0  0  0  0  0  0  0  0
    8.2160    9.7950   24.5010 C   0  0  0  0  0  0  0  0  0  0  0  0
    7.8590   11.0870   24.8980 C   0  0  0  0  0  0  0  0  0  0  0  0
    4.9230    9.4790   29.4630 C   0  0  0  0  0  0  0  0  0  0  0  0
   -0.5640    8.4020   28.3090 C   0  0  0  0  0  0  0  0  0  0  0  0
   -1.8600    8.8900   28.3980 C   0  0  0  0  0  0  0  0  0  0  0  0
   -2.9090    8.0460   28.0450 C   0  0  0  0  0  0  0  0  0  0  0  0
   -2.6270    6.7500   27.6190 C   0  0  0  0  0  0  0  0  0  0  0  0
   -1.3030    6.3470   27.5630 C   0  0  0  0  0  0  0  0  0  0  0  0
   -0.2570    7.1360   27.8960 N   0  0  0  0  0  0  0  0  0  0  0  0
  1  2  2  0
  2  3  1  0
  3  4  1  0
  5  4  1  1
  5  6  1  0
  6  7  1  0
  7  8  1  6
  8  9  1  0
  9 10  2  0
  9 11  1  0
 11 12  2  0
 12 13  1  0
 13 14  1  0
 14 15  2  0
 15 16  1  0
 16 17  2  0
 17 18  1  0
 18 19  2  0
  7 20  1  0
  2 21  1  0
 21 22  2  0
 22 23  1  0
 23 24  2  0
 24 25  1  0
 25 26  2  0
 20  5  1  0
 26 21  1  0
 19 11  1  0
 19 14  1  0
A    1
 O1 
A    2
 C1 
A    3
 N1 
A    4
 C2 
A    5
 C3 
A    6
 C4 
A    7
 C5 
A    8
 N2 
A    9
 C6 
A   10
 O2 
A   11
 C7 
A   12
 C8 
A   13
 N3 
A   14
 C9 
A   15
 C10
A   16
 C11
A   17
 C12
A   18
 C13
A   19
 C14
A   20
 C15
A   21
 C16
A   22
 C17
A   23
 C18
A   24
 C19
A   25
 C20
A   26
 N4 
M  END
>  <similarity>  (7) 
1.0

>  <smiles>  (7) 
O=C(NCC1CC(NC(=O)c2c[nH]c3ccccc23)C1)c1ccccn1

>  <cmpd_id>  (7) 
ENAMINE:PV-000236467390,ENAMINE:PV-000255627552,ENAMINE:PV-000329490603

>  <used_subnode>  (7) 
O=CNC1CCC1

>  <used_synthon>  (7) 
[Xe]c1c[nH]c2ccccc12

>  <ref_subnode>  (7) 
O=CNC1CCC1

>  <ref_synthon>  (7) 
[Xe]c1cccc2cc[nH]c12

>  <fragmentA>  (7) 
x0556_0A

>  <fragmentB>  (7) 
x0554_0A

>  <HA>  (7) 
26

>  <HBD>  (7) 
3

>  <HBA>  (7) 
3

>  <MW>  (7) 
348.15862588

>  <TPSA>  (7) 
86.88000000000001

>  <LogP>  (7) 
2.5013000000000005

>  <RBs>  (7) 
5

>  <G_bound>  (7) 
-6.652900427083091

>  <G_unbound>  (7) 
0.9728089380770788

>  <deltaG>  (7) 
-7.62570936516017

>  <comRMSD>  (7) 
0.5800016749595269

>  <substructure_overlap_check>  (7) 
True

>  <sucos>  (7) 
0.6340617993557784

>  <interactions>  (7) 
HBAcceptor_ASN-129,Hydrophobic_PRO-107,Hydrophobic_GLU-106,HBDonor_SER-105

>  <total_num_ints>  (7) 
4

>  <total_num_ints_nonhyd>  (7) 
2

>  <num_uniq_frag_ints>  (7) 
8

>  <num_repl_uniq_ints>  (7) 
3

>  <num_uniq_ints_lost>  (7) 
5

>  <num_new_uniq_ints>  (7) 
1

>  <int_check>  (7) 
True

>  <original SMILES>  (7) 
O=C(NCC1CC(NC(=O)c2c[nH]c3ccccc23)C1)c1ccccn1

>  <original_name>  (7) 
x0556_0A-x0554_0A_328_B1X

>  <ref_mols>  (7) 
Ax0556a,Ax0554a

>  <ref_pdb>  (7) 
Ax0310a

>  <rationale>  (7) 
FragNet: 1 round bioisosteric merging incl O=CNC1CCC1 and [Xe]c1c[nH]c2ccccc12 replacing [Xe]c1cccc2cc[nH]c12

$$$$
x0556_0A-x0554_0A_11_B1X
     RDKit          3D

 24 27  0  0  0  0  0  0  0  0999 V2000
    1.7110    7.7960   26.8430 O   0  0  0  0  0  0  0  0  0  0  0  0
    1.8550    6.8870   27.6680 C   0  0  0  0  0  0  0  0  0  0  0  0
    2.8170    6.9500   28.6770 N   0  0  0  0  0  0  0  0  0  0  0  0
    3.4290    8.2490   29.0390 C   0  0  2  0  0  0  0  0  0  0  0  0
    3.5170    9.2050   27.8480 C   0  0  0  0  0  0  0  0  0  0  0  0
    4.9010    9.6740   28.3380 C   0  0  2  0  0  0  0  0  0  0  0  0
    5.8880    9.9420   27.2560 N   0  0  0  0  0  0  0  0  0  0  0  0
    5.8170   11.1680   26.5960 C   0  0  0  0  0  0  0  0  0  0  0  0
    4.8210   11.8660   26.7210 O   0  0  0  0  0  0  0  0  0  0  0  0
    6.9050   11.6800   25.7490 C   0  0  0  0  0  0  0  0  0  0  0  0
    7.1320   13.0440   25.6840 C   0  0  0  0  0  0  0  0  0  0  0  0
    8.1640   13.2940   24.8360 N   0  0  0  0  0  0  0  0  0  0  0  0
    8.6390   12.1210   24.3250 C   0  0  0  0  0  0  0  0  0  0  0  0
    9.6770   11.9210   23.4190 C   0  0  0  0  0  0  0  0  0  0  0  0
    9.9560   10.6140   23.0580 C   0  0  0  0  0  0  0  0  0  0  0  0
    9.2490    9.5670   23.5770 C   0  0  0  0  0  0  0  0  0  0  0  0
    8.2160    9.7880   24.4830 C   0  0  0  0  0  0  0  0  0  0  0  0
    7.8820   11.0850   24.8770 C   0  0  0  0  0  0  0  0  0  0  0  0
    4.9700    8.3000   29.0500 C   0  0  0  0  0  0  0  0  0  0  0  0
    1.0160    5.6730   27.6430 C   0  0  0  0  0  0  0  0  0  0  0  0
    1.4080    4.3150   27.4900 C   0  0  0  0  0  0  0  0  0  0  0  0
    0.2460    3.5860   27.5260 C   0  0  0  0  0  0  0  0  0  0  0  0
   -0.7560    4.4910   27.6930 N   0  0  0  0  0  0  0  0  0  0  0  0
   -0.3230    5.7540   27.7680 N   0  0  0  0  0  0  0  0  0  0  0  0
  1  2  2  0
  2  3  1  0
  4  3  1  6
  4  5  1  0
  5  6  1  0
  6  7  1  6
  7  8  1  0
  8  9  2  0
  8 10  1  0
 10 11  2  0
 11 12  1  0
 12 13  1  0
 13 14  2  0
 14 15  1  0
 15 16  2  0
 16 17  1  0
 17 18  2  0
  6 19  1  0
  2 20  1  0
 20 21  1  0
 21 22  2  0
 22 23  1  0
 23 24  1  0
 19  4  1  0
 24 20  2  0
 18 10  1  0
 18 13  1  0
A    1
 O1 
A    2
 C1 
A    3
 N1 
A    4
 C2 
A    5
 C3 
A    6
 C4 
A    7
 N2 
A    8
 C5 
A    9
 O2 
A   10
 C6 
A   11
 C7 
A   12
 N3 
A   13
 C8 
A   14
 C9 
A   15
 C10
A   16
 C11
A   17
 C12
A   18
 C13
A   19
 C14
A   20
 C15
A   21
 C16
A   22
 C17
A   23
 N4 
A   24
 N5 
M  END
>  <similarity>  (8) 
1.0

>  <smiles>  (8) 
O=C(NC1CC(NC(=O)c2c[nH]c3ccccc23)C1)c1cc[nH]n1

>  <cmpd_id>  (8) 
ENAMINE:PV-000439473791,ENAMINE:PV-000445091439

>  <used_subnode>  (8) 
O=CNC1CCC1

>  <used_synthon>  (8) 
[Xe]c1c[nH]c2ccccc12

>  <ref_subnode>  (8) 
O=CNC1CCC1

>  <ref_synthon>  (8) 
[Xe]c1cccc2cc[nH]c12

>  <fragmentA>  (8) 
x0556_0A

>  <fragmentB>  (8) 
x0554_0A

>  <HA>  (8) 
24

>  <HBD>  (8) 
4

>  <HBA>  (8) 
3

>  <MW>  (8) 
323.13822478400004

>  <TPSA>  (8) 
102.67

>  <LogP>  (8) 
1.5817999999999999

>  <RBs>  (8) 
4

>  <G_bound>  (8) 
-8.082839610273773

>  <G_unbound>  (8) 
0.817375604891371

>  <deltaG>  (8) 
-8.900215215165144

>  <comRMSD>  (8) 
0.4098258644123752

>  <substructure_overlap_check>  (8) 
True

>  <sucos>  (8) 
0.6537700479846044

>  <interactions>  (8) 
HBAcceptor_GLY-130,Hydrophobic_PRO-107,Hydrophobic_GLU-106,HBDonor_SER-105,Hydrophobic_HIS-104,PiStacking_HIS-104

>  <total_num_ints>  (8) 
6

>  <total_num_ints_nonhyd>  (8) 
3

>  <num_uniq_frag_ints>  (8) 
8

>  <num_repl_uniq_ints>  (8) 
4

>  <num_uniq_ints_lost>  (8) 
4

>  <num_new_uniq_ints>  (8) 
2

>  <int_check>  (8) 
True

>  <original SMILES>  (8) 
O=C(NC1CC(NC(=O)c2c[nH]c3ccccc23)C1)c1cc[nH]n1

>  <original_name>  (8) 
x0556_0A-x0554_0A_11_B1X

>  <ref_mols>  (8) 
Ax0556a,Ax0554a

>  <ref_pdb>  (8) 
Ax0310a

>  <rationale>  (8) 
FragNet: 1 round bioisosteric merging incl O=CNC1CCC1 and [Xe]c1c[nH]c2ccccc12 replacing [Xe]c1cccc2cc[nH]c12

$$$$
x0556_0A-x0566_0A_12_B1X
     RDKit          3D

 23 26  0  0  0  0  0  0  0  0999 V2000
    2.3470    6.5540   31.1850 O   0  0  0  0  0  0  0  0  0  0  0  0
    2.1260    7.7630   31.1910 C   0  0  0  0  0  0  0  0  0  0  0  0
    2.6060    8.6060   30.2020 N   0  0  0  0  0  0  0  0  0  0  0  0
    3.4760    8.1230   29.1170 C   0  0  1  0  0  0  0  0  0  0  0  0
    3.2950    8.8610   27.7790 C   0  0  0  0  0  0  0  0  0  0  0  0
    4.3980    9.8620   28.2310 C   0  0  2  0  0  0  0  0  0  0  0  0
    5.3720   10.2160   27.1840 N   0  0  0  0  0  0  0  0  0  0  0  0
    5.7340   11.5160   26.7910 C   0  0  0  0  0  0  0  0  0  0  0  0
    5.2190   12.5580   27.1810 O   0  0  0  0  0  0  0  0  0  0  0  0
    6.7980   11.4120   25.8620 C   0  0  0  0  0  0  0  0  0  0  0  0
    7.1560   10.2200   25.4020 C   0  0  0  0  0  0  0  0  0  0  0  0
    8.1650   10.3750   24.5650 C   0  0  0  0  0  0  0  0  0  0  0  0
    8.9010    9.5320   23.8360 O   0  0  0  0  0  0  0  0  0  0  0  0
    9.7430   10.3840   23.2150 C   0  0  0  0  0  0  0  0  0  0  0  0
    9.5630   11.7250   23.5310 C   0  0  0  0  0  0  0  0  0  0  0  0
    8.4900   11.6660   24.4440 C   0  0  0  0  0  0  0  0  0  0  0  0
    7.6390   12.3740   25.2600 N   0  0  0  0  0  0  0  0  0  0  0  0
    4.9050    8.7020   29.1160 C   0  0  0  0  0  0  0  0  0  0  0  0
    1.3370    8.3910   32.2430 C   0  0  0  0  0  0  0  0  0  0  0  0
    0.9260    9.7530   32.3390 C   0  0  0  0  0  0  0  0  0  0  0  0
    0.2080    9.8610   33.5050 C   0  0  0  0  0  0  0  0  0  0  0  0
    0.2120    8.6080   34.0440 N   0  0  0  0  0  0  0  0  0  0  0  0
    0.8820    7.7060   33.3100 N   0  0  0  0  0  0  0  0  0  0  0  0
  1  2  2  0
  2  3  1  0
  4  3  1  1
  4  5  1  0
  5  6  1  0
  6  7  1  6
  7  8  1  0
  8  9  2  0
  8 10  1  0
 10 11  2  0
 11 12  1  0
 12 13  1  0
 13 14  1  0
 14 15  2  0
 15 16  1  0
 16 17  1  0
  6 18  1  0
  2 19  1  0
 19 20  1  0
 20 21  2  0
 21 22  1  0
 22 23  1  0
 18  4  1  0
 23 19  2  0
 17 10  1  0
 16 12  2  0
A    1
 O1 
A    2
 C1 
A    3
 N1 
A    4
 C2 
A    5
 C3 
A    6
 C4 
A    7
 N2 
A    8
 C5 
A    9
 O2 
A   10
 C6 
A   11
 C7 
A   12
 C8 
A   13
 O3 
A   14
 C9 
A   15
 C10
A   16
 C11
A   17
 N3 
A   18
 C12
A   19
 C13
A   20
 C14
A   21
 C15
A   22
 N4 
A   23
 N5 
M  END
>  <similarity>  (9) 
1.0

>  <smiles>  (9) 
O=C(NC1CC(NC(=O)c2cc3occc3[nH]2)C1)c1cc[nH]n1

>  <cmpd_id>  (9) 
ENAMINE:PV-000446066821,ENAMINE:PV-000439471679,ENAMINE:PV-000445093024

>  <used_subnode>  (9) 
O=CNC1CCC1

>  <used_synthon>  (9) 
[Xe]c1cc2occc2[nH]1

>  <ref_subnode>  (9) 
O=CNC1CCC1

>  <ref_synthon>  (9) 
[Xe]c1cccc2cc[nH]c12

>  <fragmentA>  (9) 
x0556_0A

>  <fragmentB>  (9) 
x0566_0A

>  <HA>  (9) 
23

>  <HBD>  (9) 
4

>  <HBA>  (9) 
4

>  <MW>  (9) 
313.1174893400001

>  <TPSA>  (9) 
115.80999999999999

>  <LogP>  (9) 
1.1747999999999998

>  <RBs>  (9) 
4

>  <G_bound>  (9) 
-5.482967580590367

>  <G_unbound>  (9) 
0.6989144978283014

>  <deltaG>  (9) 
-6.181882078418669

>  <comRMSD>  (9) 
0.9372716660760128

>  <substructure_overlap_check>  (9) 
True

>  <sucos>  (9) 
0.5550849389172922

>  <interactions>  (9) 
Hydrophobic_PRO-107,Hydrophobic_GLU-106,HBAcceptor_SER-105,HBDonor_SER-105

>  <total_num_ints>  (9) 
4

>  <total_num_ints_nonhyd>  (9) 
2

>  <num_uniq_frag_ints>  (9) 
5

>  <num_repl_uniq_ints>  (9) 
3

>  <num_uniq_ints_lost>  (9) 
2

>  <num_new_uniq_ints>  (9) 
1

>  <int_check>  (9) 
True

>  <original SMILES>  (9) 
O=C(NC1CC(NC(=O)c2cc3occc3[nH]2)C1)c1cc[nH]n1

>  <original_name>  (9) 
x0556_0A-x0566_0A_12_B1X

>  <ref_mols>  (9) 
Ax0556a,Ax0566a

>  <ref_pdb>  (9) 
Ax0310a

>  <rationale>  (9) 
FragNet: 1 round bioisosteric merging incl O=CNC1CCC1 and [Xe]c1cc2occc2[nH]1 replacing [Xe]c1cccc2cc[nH]c12

$$$$
x0556_0A-x0566_0A_212_B1X
     RDKit          3D

 24 27  0  0  0  0  0  0  0  0999 V2000
    1.0970    5.7230   30.0980 O   0  0  0  0  0  0  0  0  0  0  0  0
    0.6570    6.6930   29.4860 C   0  0  0  0  0  0  0  0  0  0  0  0
    1.2340    7.9520   29.5970 N   0  0  0  0  0  0  0  0  0  0  0  0
    2.5670    8.1350   30.1390 C   0  0  0  0  0  0  0  0  0  0  0  0
    3.5470    7.9740   28.9890 C   0  0  1  0  0  0  0  0  0  0  0  0
    3.3180    8.8350   27.7300 C   0  0  0  0  0  0  0  0  0  0  0  0
    4.4000    9.8310   28.2260 C   0  0  2  0  0  0  0  0  0  0  0  0
    5.3940   10.2050   27.2140 N   0  0  0  0  0  0  0  0  0  0  0  0
    5.7340   11.5070   26.8150 C   0  0  0  0  0  0  0  0  0  0  0  0
    5.2060   12.5440   27.1970 O   0  0  0  0  0  0  0  0  0  0  0  0
    6.8000   11.4100   25.8780 C   0  0  0  0  0  0  0  0  0  0  0  0
    7.1290   10.2200   25.4080 C   0  0  0  0  0  0  0  0  0  0  0  0
    8.1550   10.3860   24.5650 C   0  0  0  0  0  0  0  0  0  0  0  0
    8.8830    9.5500   23.8230 O   0  0  0  0  0  0  0  0  0  0  0  0
    9.7500   10.3860   23.2070 C   0  0  0  0  0  0  0  0  0  0  0  0
    9.5750   11.7260   23.5520 C   0  0  0  0  0  0  0  0  0  0  0  0
    8.5000   11.6750   24.4650 C   0  0  0  0  0  0  0  0  0  0  0  0
    7.6430   12.3750   25.3030 N   0  0  0  0  0  0  0  0  0  0  0  0
    4.9140    8.6880   29.1330 C   0  0  0  0  0  0  0  0  0  0  0  0
   -0.5110    6.6080   28.6040 C   0  0  0  0  0  0  0  0  0  0  0  0
   -1.4040    7.5900   28.2170 C   0  0  0  0  0  0  0  0  0  0  0  0
   -2.2840    6.9450   27.3990 N   0  0  0  0  0  0  0  0  0  0  0  0
   -1.9770    5.6500   27.2730 N   0  0  0  0  0  0  0  0  0  0  0  0
   -0.8930    5.4250   28.0030 N   0  0  0  0  0  0  0  0  0  0  0  0
  1  2  2  0
  2  3  1  0
  3  4  1  0
  5  4  1  1
  5  6  1  0
  6  7  1  0
  7  8  1  6
  8  9  1  0
  9 10  2  0
  9 11  1  0
 11 12  2  0
 12 13  1  0
 13 14  1  0
 14 15  1  0
 15 16  2  0
 16 17  1  0
 17 18  1  0
  7 19  1  0
  2 20  1  0
 20 21  2  0
 21 22  1  0
 22 23  1  0
 23 24  2  0
 19  5  1  0
 24 20  1  0
 18 11  1  0
 17 13  2  0
A    1
 O1 
A    2
 C1 
A    3
 N1 
A    4
 C2 
A    5
 C3 
A    6
 C4 
A    7
 C5 
A    8
 N2 
A    9
 C6 
A   10
 O2 
A   11
 C7 
A   12
 C8 
A   13
 C9 
A   14
 O3 
A   15
 C10
A   16
 C11
A   17
 C12
A   18
 N3 
A   19
 C13
A   20
 C14
A   21
 C15
A   22
 N4 
A   23
 N5 
A   24
 N6 
M  END
>  <similarity>  (10) 
1.0

>  <smiles>  (10) 
O=C(NCC1CC(NC(=O)c2cc3occc3[nH]2)C1)c1c[nH]nn1

>  <cmpd_id>  (10) 
ENAMINE:PV-000236148591,ENAMINE:PV-000255239313,ENAMINE:PV-000330647340

>  <used_subnode>  (10) 
O=CNC1CCC1

>  <used_synthon>  (10) 
[Xe]c1cc2occc2[nH]1

>  <ref_subnode>  (10) 
O=CNC1CCC1

>  <ref_synthon>  (10) 
[Xe]c1cccc2cc[nH]c12

>  <fragmentA>  (10) 
x0556_0A

>  <fragmentB>  (10) 
x0566_0A

>  <HA>  (10) 
24

>  <HBD>  (10) 
4

>  <HBA>  (10) 
5

>  <MW>  (10) 
328.1283883720001

>  <TPSA>  (10) 
128.7

>  <LogP>  (10) 
0.8173999999999997

>  <RBs>  (10) 
5

>  <G_bound>  (10) 
-6.101943107019939

>  <G_unbound>  (10) 
0.6811810999013642

>  <deltaG>  (10) 
-6.783124206921303

>  <comRMSD>  (10) 
0.9344701381423303

>  <substructure_overlap_check>  (10) 
True

>  <sucos>  (10) 
0.556408179348948

>  <interactions>  (10) 
Hydrophobic_PRO-107,Hydrophobic_GLU-106,HBAcceptor_SER-105,HBDonor_SER-105,Hydrophobic_HIS-104

>  <total_num_ints>  (10) 
5

>  <total_num_ints_nonhyd>  (10) 
2

>  <num_uniq_frag_ints>  (10) 
5

>  <num_repl_uniq_ints>  (10) 
4

>  <num_uniq_ints_lost>  (10) 
1

>  <num_new_uniq_ints>  (10) 
1

>  <int_check>  (10) 
True

>  <original SMILES>  (10) 
O=C(NCC1CC(NC(=O)c2cc3occc3[nH]2)C1)c1c[nH]nn1

>  <original_name>  (10) 
x0556_0A-x0566_0A_212_B1X

>  <ref_mols>  (10) 
Ax0556a,Ax0566a

>  <ref_pdb>  (10) 
Ax0310a

>  <rationale>  (10) 
FragNet: 1 round bioisosteric merging incl O=CNC1CCC1 and [Xe]c1cc2occc2[nH]1 replacing [Xe]c1cccc2cc[nH]c12

$$$$
x0365_0A-x0310_0A_1789_B1X_rgrp-1
     RDKit          3D

 21 23  0  0  0  0  0  0  0  0999 V2000
   10.6120   12.4090   22.9630 C   0  0  0  0  0  0  0  0  0  0  0  0
    9.5090   11.7070   23.7060 C   0  0  0  0  0  0  0  0  0  0  0  0
    8.6490   12.6900   24.4450 C   0  0  0  0  0  0  0  0  0  0  0  0
    7.5250   12.0890   25.2180 C   0  0  0  0  0  0  0  0  0  0  0  0
    7.4620   10.5820   25.1090 C   0  0  0  0  0  0  0  0  0  0  0  0
    6.3920   10.0810   25.8310 N   0  0  0  0  0  0  0  0  0  0  0  0
    5.6430   11.0760   26.6450 C   0  0  0  0  0  0  0  0  0  0  0  0
    6.2300   11.3080   28.0270 C   0  0  0  0  0  0  0  0  0  0  0  0
    6.2060   10.1590   29.0230 C   0  0  0  0  0  0  0  0  0  0  0  0
    6.8050   10.4290   30.3900 C   0  0  0  0  0  0  0  0  0  0  0  0
    7.3950   11.7910   30.7260 C   0  0  0  0  0  0  0  0  0  0  0  0
    7.3530   12.8440   29.6440 C   0  0  0  0  0  0  0  0  0  0  0  0
    7.8730   14.1560   29.8310 C   0  0  0  0  0  0  0  0  0  0  0  0
    8.2180   14.8350   28.8690 O   0  0  0  0  0  0  0  0  0  0  0  0
    7.9580   14.5770   31.1490 N   0  0  0  0  0  0  0  0  0  0  0  0
    8.8540   15.5340   31.5640 C   0  0  0  0  0  0  0  0  0  0  0  0
    9.4570   15.3990   32.7580 C   0  0  0  0  0  0  0  0  0  0  0  0
   10.1540   15.3410   31.3850 C   0  0  0  0  0  0  0  0  0  0  0  0
    6.7880   12.5650   28.3760 C   0  0  0  0  0  0  0  0  0  0  0  0
    8.2930    9.7500   24.4090 N   0  0  0  0  0  0  0  0  0  0  0  0
    9.2990   10.3260   23.7200 C   0  0  0  0  0  0  0  0  0  0  0  0
  1  2  1  0
  2  3  2  0
  3  4  1  0
  4  5  2  0
  5  6  1  0
  6  7  1  0
  7  8  1  0
  8  9  2  0
  9 10  1  0
 10 11  2  0
 11 12  1  0
 12 13  1  0
 13 14  2  0
 13 15  1  0
 15 16  1  0
 16 17  1  0
 17 18  1  0
 12 19  2  0
  5 20  1  0
 20 21  2  0
 21  2  1  0
 19  8  1  0
 18 16  1  0
A    1
 C1 
A    2
 C2 
A    3
 C3 
A    4
 C4 
A    5
 C5 
A    6
 N1 
A    7
 C6 
A    8
 C7 
A    9
 C8 
A   10
 C9 
A   11
 C10
A   12
 C11
A   13
 C12
A   14
 O1 
A   15
 N2 
A   16
 C13
A   17
 C14
A   18
 C15
A   19
 C16
A   20
 N3 
A   21
 C17
M  END
>  <similarity>  (11) 
1.0

>  <smiles>  (11) 
Cc1ccc(NCc2cccc(C(=O)NC3CC3)c2)nc1

>  <cmpd_id>  (11) 
ENAMINE:Z1272203135

>  <used_subnode>  (11) 
NCc1ccccc1

>  <used_synthon>  (11) 
[Xe]c1ccccn1

>  <ref_subnode>  (11) 
NCc1ccccc1

>  <ref_synthon>  (11) 
[Xe]n1cccn1

>  <fragmentA>  (11) 
x0365_0A

>  <fragmentB>  (11) 
x0310_0A

>  <HA>  (11) 
21

>  <HBD>  (11) 
2

>  <HBA>  (11) 
3

>  <MW>  (11) 
281.152812228

>  <TPSA>  (11) 
54.02

>  <LogP>  (11) 
2.8943200000000013

>  <RBs>  (11) 
5

>  <G_bound>  (11) 
-6.439129952700005

>  <G_unbound>  (11) 
0.3607134182340143

>  <deltaG>  (11) 
-6.79984337093402

>  <comRMSD>  (11) 
0.2569571802709631

>  <substructure_overlap_check>  (11) 
True

>  <sucos>  (11) 
0.5772918840002049

>  <interactions>  (11) 
Hydrophobic_GLU-106,Hydrophobic_PRO-107,HBAcceptor_SER-105,HBDonor_SER-105

>  <total_num_ints>  (11) 
4

>  <total_num_ints_nonhyd>  (11) 
2

>  <num_uniq_frag_ints>  (11) 
6

>  <num_repl_uniq_ints>  (11) 
3

>  <num_uniq_ints_lost>  (11) 
3

>  <num_new_uniq_ints>  (11) 
1

>  <int_check>  (11) 
True

>  <original SMILES>  (11) 
Cc1ccc(NCc2cccc(C(=O)NC3CC3)c2)nc1

>  <original_name>  (11) 
x0365_0A-x0310_0A_1789_B1X_rgrp-1

>  <ref_mols>  (11) 
Ax0365a,Ax0310a

>  <ref_pdb>  (11) 
Ax0310a

>  <rationale>  (11) 
FragNet: 1 round bioisosteric merging incl NCc1ccccc1 and [Xe]c1ccccn1 replacing [Xe]n1cccn1

$$$$
x0365_0A-x0310_0A_2013_B1X_rgrp-0
     RDKit          3D

 23 24  0  0  0  0  0  0  0  0999 V2000
    6.9830    7.3190   31.5380 C   0  0  0  0  0  0  0  0  0  0  0  0
    6.1960    8.2880   30.6760 C   0  0  0  0  0  0  0  0  0  0  0  0
    6.2020    9.5630   31.3260 O   0  0  0  0  0  0  0  0  0  0  0  0
    6.4120   10.5780   30.4260 C   0  0  0  0  0  0  0  0  0  0  0  0
    6.0440   10.3510   29.0660 C   0  0  0  0  0  0  0  0  0  0  0  0
    6.2240   11.3800   28.0180 C   0  0  0  0  0  0  0  0  0  0  0  0
    5.8160   11.0860   26.5990 C   0  0  0  0  0  0  0  0  0  0  0  0
    6.7780   10.1550   26.0330 N   0  0  0  0  0  0  0  0  0  0  0  0
    7.7120   10.6370   25.1200 C   0  0  0  0  0  0  0  0  0  0  0  0
    7.9090   12.0550   24.9880 C   0  0  0  0  0  0  0  0  0  0  0  0
    8.9650   12.5070   23.9740 C   0  0  0  0  0  0  0  0  0  0  0  0
    9.6530   11.3900   23.2500 C   0  0  0  0  0  0  0  0  0  0  0  0
    9.3340   10.0820   23.5000 C   0  0  0  0  0  0  0  0  0  0  0  0
   10.1540    9.1410   22.6410 C   0  0  0  0  0  0  0  0  0  0  0  0
    8.3990    9.6830   24.3960 N   0  0  0  0  0  0  0  0  0  0  0  0
    6.7780   12.6040   28.3980 C   0  0  0  0  0  0  0  0  0  0  0  0
    7.1570   12.8830   29.7120 C   0  0  0  0  0  0  0  0  0  0  0  0
    6.9620   11.8110   30.8000 C   0  0  0  0  0  0  0  0  0  0  0  0
    7.3170   12.0580   32.1100 O   0  0  0  0  0  0  0  0  0  0  0  0
    8.1320   11.0560   32.7270 C   0  0  0  0  0  0  0  0  0  0  0  0
    9.3140   10.8200   31.8000 C   0  0  0  0  0  0  0  0  0  0  0  0
   10.1520   12.0830   31.6480 C   0  0  0  0  0  0  0  0  0  0  0  0
   10.1790    9.6320   32.2110 C   0  0  0  0  0  0  0  0  0  0  0  0
  1  2  1  0
  2  3  1  0
  3  4  1  0
  4  5  2  0
  5  6  1  0
  6  7  1  0
  7  8  1  0
  8  9  1  0
  9 10  2  0
 10 11  1  0
 11 12  2  0
 12 13  1  0
 13 14  1  0
 13 15  2  0
  6 16  2  0
 16 17  1  0
 17 18  2  0
 18 19  1  0
 19 20  1  0
 20 21  1  0
 21 22  1  0
 21 23  1  0
 18  4  1  0
 15  9  1  0
A    1
 C1 
A    2
 C2 
A    3
 O1 
A    4
 C3 
A    5
 C4 
A    6
 C5 
A    7
 C6 
A    8
 N1 
A    9
 C7 
A   10
 C8 
A   11
 C9 
A   12
 C10
A   13
 C11
A   14
 C12
A   15
 N2 
A   16
 C13
A   17
 C14
A   18
 C15
A   19
 O2 
A   20
 C16
A   21
 C17
A   22
 C18
A   23
 C19
M  END
>  <similarity>  (12) 
1.0

>  <smiles>  (12) 
CCOc1cc(CNc2cccc(C)n2)ccc1OCC(C)C

>  <cmpd_id>  (12) 
ENAMINE:PV-001923640566

>  <used_subnode>  (12) 
NCc1ccccc1

>  <used_synthon>  (12) 
[Xe]c1ccccn1

>  <ref_subnode>  (12) 
NCc1ccccc1

>  <ref_synthon>  (12) 
[Xe]n1cccn1

>  <fragmentA>  (12) 
x0365_0A

>  <fragmentB>  (12) 
x0310_0A

>  <HA>  (12) 
23

>  <HBD>  (12) 
1

>  <HBA>  (12) 
4

>  <MW>  (12) 
314.199428072

>  <TPSA>  (12) 
43.379999999999995

>  <LogP>  (12) 
4.435620000000004

>  <RBs>  (12) 
8

>  <G_bound>  (12) 
-10.686700999067202

>  <G_unbound>  (12) 
0.057019749677521596

>  <deltaG>  (12) 
-10.743720748744725

>  <comRMSD>  (12) 
0.23041974923929576

>  <substructure_overlap_check>  (12) 
True

>  <sucos>  (12) 
0.5829886684472192

>  <interactions>  (12) 
Hydrophobic_GLU-106,Hydrophobic_PRO-107,Hydrophobic_VAL-124,HBAcceptor_SER-105,HBDonor_SER-105

>  <total_num_ints>  (12) 
5

>  <total_num_ints_nonhyd>  (12) 
2

>  <num_uniq_frag_ints>  (12) 
6

>  <num_repl_uniq_ints>  (12) 
4

>  <num_uniq_ints_lost>  (12) 
2

>  <num_new_uniq_ints>  (12) 
1

>  <int_check>  (12) 
True

>  <original SMILES>  (12) 
CCOc1cc(CNc2cccc(C)n2)ccc1OCC(C)C

>  <original_name>  (12) 
x0365_0A-x0310_0A_2013_B1X_rgrp-0

>  <ref_mols>  (12) 
Ax0365a,Ax0310a

>  <ref_pdb>  (12) 
Ax0310a

>  <rationale>  (12) 
FragNet: 1 round bioisosteric merging incl NCc1ccccc1 and [Xe]c1ccccn1 replacing [Xe]n1cccn1

$$$$
x0365_0A-x0310_0A_2024_B1X_rgrp-0
     RDKit          3D

 26 27  0  0  0  0  0  0  0  0999 V2000
    6.5680    7.4950   32.1020 C   0  0  0  0  0  0  0  0  0  0  0  0
    6.9880    8.6500   31.2690 C   0  0  0  0  0  0  0  0  0  0  0  0
    6.4300    9.7330   31.4110 O   0  0  0  0  0  0  0  0  0  0  0  0
    6.5280   10.6110   30.3640 C   0  0  0  0  0  0  0  0  0  0  0  0
    6.0680   10.3450   29.0440 C   0  0  0  0  0  0  0  0  0  0  0  0
    6.2080   11.3340   27.9650 C   0  0  0  0  0  0  0  0  0  0  0  0
    5.7700   11.0470   26.6700 C   0  0  0  0  0  0  0  0  0  0  0  0
    6.7600   10.1430   26.0730 N   0  0  0  0  0  0  0  0  0  0  0  0
    7.6910   10.6150   25.1430 C   0  0  0  0  0  0  0  0  0  0  0  0
    7.9170   12.0940   24.9790 C   0  0  0  0  0  0  0  0  0  0  0  0
    8.9150   12.6570   24.0120 C   0  0  0  0  0  0  0  0  0  0  0  0
    9.6480   11.5330   23.2400 C   0  0  0  0  0  0  0  0  0  0  0  0
    9.3200   10.1860   23.5040 C   0  0  0  0  0  0  0  0  0  0  0  0
   10.0860    9.1330   22.6900 C   0  0  0  0  0  0  0  0  0  0  0  0
    8.3960    9.7240   24.3980 N   0  0  0  0  0  0  0  0  0  0  0  0
    6.8080   12.5570   28.3020 C   0  0  0  0  0  0  0  0  0  0  0  0
    7.2640   12.8210   29.6000 C   0  0  0  0  0  0  0  0  0  0  0  0
    7.1290   11.8580   30.6170 C   0  0  0  0  0  0  0  0  0  0  0  0
    7.6070   12.1480   31.8760 O   0  0  0  0  0  0  0  0  0  0  0  0
    6.7530   12.9950   32.6600 C   0  0  2  0  0  0  0  0  0  0  0  0
    7.2000   14.4320   32.3990 C   0  0  0  0  0  0  0  0  0  0  0  0
    6.9340   12.6590   34.1620 C   0  0  0  0  0  0  0  0  0  0  0  0
    7.1610   13.5500   34.9950 O   0  0  0  0  0  0  0  0  0  0  0  0
    6.8440   11.3220   34.5490 N   0  0  0  0  0  0  0  0  0  0  0  0
    7.9730   10.4080   34.6050 C   0  0  0  0  0  0  0  0  0  0  0  0
    5.5530   10.6760   34.3690 C   0  0  0  0  0  0  0  0  0  0  0  0
  1  2  1  0
  2  3  1  0
  3  4  1  0
  4  5  2  0
  5  6  1  0
  6  7  1  0
  7  8  1  0
  8  9  1  0
  9 10  2  0
 10 11  1  0
 11 12  2  0
 12 13  1  0
 13 14  1  0
 13 15  2  0
  6 16  2  0
 16 17  1  0
 17 18  2  0
 18 19  1  0
 19 20  1  0
 20 21  1  1
 20 22  1  0
 22 23  2  0
 22 24  1  0
 24 25  1  0
 24 26  1  0
 18  4  1  0
 15  9  1  0
A    1
 C1 
A    2
 C2 
A    3
 O1 
A    4
 C3 
A    5
 C4 
A    6
 C5 
A    7
 C6 
A    8
 N1 
A    9
 C7 
A   10
 C8 
A   11
 C9 
A   12
 C10
A   13
 C11
A   14
 C12
A   15
 N2 
A   16
 C13
A   17
 C14
A   18
 C15
A   19
 O2 
A   20
 C16
A   21
 C17
A   22
 C18
A   23
 O3 
A   24
 N3 
A   25
 C19
A   26
 C20
M  END
>  <similarity>  (13) 
1.0

>  <smiles>  (13) 
CCOc1cc(CNc2cccc(C)n2)ccc1OC(C)C(=O)N(C)C

>  <cmpd_id>  (13) 
ENAMINE:Z636472078

>  <used_subnode>  (13) 
NCc1ccccc1

>  <used_synthon>  (13) 
[Xe]c1ccccn1

>  <ref_subnode>  (13) 
NCc1ccccc1

>  <ref_synthon>  (13) 
[Xe]n1cccn1

>  <fragmentA>  (13) 
x0365_0A

>  <fragmentB>  (13) 
x0310_0A

>  <HA>  (13) 
26

>  <HBD>  (13) 
1

>  <HBA>  (13) 
5

>  <MW>  (13) 
357.205241724

>  <TPSA>  (13) 
63.69

>  <LogP>  (13) 
3.2563200000000014

>  <RBs>  (13) 
8

>  <G_bound>  (13) 
-9.724018993482995

>  <G_unbound>  (13) 
-1.049031081956614

>  <deltaG>  (13) 
-8.674987911526381

>  <comRMSD>  (13) 
0.14212522464082597

>  <substructure_overlap_check>  (13) 
True

>  <sucos>  (13) 
0.5838399913850703

>  <interactions>  (13) 
Hydrophobic_GLU-106,Hydrophobic_PRO-107,Hydrophobic_VAL-124,HBAcceptor_SER-105,HBDonor_SER-105

>  <total_num_ints>  (13) 
5

>  <total_num_ints_nonhyd>  (13) 
2

>  <num_uniq_frag_ints>  (13) 
6

>  <num_repl_uniq_ints>  (13) 
4

>  <num_uniq_ints_lost>  (13) 
2

>  <num_new_uniq_ints>  (13) 
1

>  <int_check>  (13) 
True

>  <original SMILES>  (13) 
CCOc1cc(CNc2cccc(C)n2)ccc1OC(C)C(=O)N(C)C

>  <original_name>  (13) 
x0365_0A-x0310_0A_2024_B1X_rgrp-0

>  <ref_mols>  (13) 
Ax0365a,Ax0310a

>  <ref_pdb>  (13) 
Ax0310a

>  <rationale>  (13) 
FragNet: 1 round bioisosteric merging incl NCc1ccccc1 and [Xe]c1ccccn1 replacing [Xe]n1cccn1

$$$$
x0365_0A-x0310_0A_1857_B1X
     RDKit          3D

 21 23  0  0  0  0  0  0  0  0999 V2000
   10.4390   12.0220   22.9350 C   0  0  0  0  0  0  0  0  0  0  0  0
    9.4360   11.5750   23.6690 C   0  0  0  0  0  0  0  0  0  0  0  0
    8.5250   12.4580   24.4260 C   0  0  0  0  0  0  0  0  0  0  0  0
    7.4990   11.9480   25.1750 C   0  0  0  0  0  0  0  0  0  0  0  0
    7.3400   10.5650   25.2010 C   0  0  0  0  0  0  0  0  0  0  0  0
    6.2970   10.0030   25.9400 N   0  0  0  0  0  0  0  0  0  0  0  0
    5.4380   10.8120   26.8010 C   0  0  0  0  0  0  0  0  0  0  0  0
    6.1240   11.1880   28.0820 C   0  0  0  0  0  0  0  0  0  0  0  0
    6.1750   10.2800   29.1440 C   0  0  0  0  0  0  0  0  0  0  0  0
    6.8090   10.6170   30.3250 C   0  0  0  0  0  0  0  0  0  0  0  0
    7.4000   11.8810   30.4380 C   0  0  0  0  0  0  0  0  0  0  0  0
    7.3650   12.8130   29.3900 C   0  0  0  0  0  0  0  0  0  0  0  0
    7.9670   14.0740   29.5030 C   0  0  0  0  0  0  0  0  0  0  0  0
    8.9330   14.2900   30.4780 C   0  0  0  0  0  0  0  0  0  0  0  0
    9.5460   15.5340   30.5980 C   0  0  0  0  0  0  0  0  0  0  0  0
    9.1090   16.6090   29.6300 C   0  0  0  0  0  0  0  0  0  0  0  0
    8.1730   16.3940   28.6890 N   0  0  0  0  0  0  0  0  0  0  0  0
    7.6340   15.1420   28.6540 C   0  0  0  0  0  0  0  0  0  0  0  0
    6.7140   12.4430   28.2130 C   0  0  0  0  0  0  0  0  0  0  0  0
    8.1640    9.7080   24.5140 N   0  0  0  0  0  0  0  0  0  0  0  0
    9.1770   10.2200   23.7770 C   0  0  0  0  0  0  0  0  0  0  0  0
  1  2  1  0
  2  3  2  0
  3  4  1  0
  4  5  2  0
  5  6  1  0
  6  7  1  0
  7  8  1  0
  8  9  2  0
  9 10  1  0
 10 11  2  0
 11 12  1  0
 12 13  1  0
 13 14  2  0
 14 15  1  0
 15 16  2  0
 16 17  1  0
 17 18  2  0
 12 19  2  0
  5 20  1  0
 20 21  2  0
 21  2  1  0
 19  8  1  0
 18 13  1  0
A    1
 C1 
A    2
 C2 
A    3
 C3 
A    4
 C4 
A    5
 C5 
A    6
 N1 
A    7
 C6 
A    8
 C7 
A    9
 C8 
A   10
 C9 
A   11
 C10
A   12
 C11
A   13
 C12
A   14
 C13
A   15
 C14
A   16
 C15
A   17
 N2 
A   18
 C16
A   19
 C17
A   20
 N3 
A   21
 C18
M  END
>  <similarity>  (14) 
1.0

>  <smiles>  (14) 
Cc1ccc(NCc2cccc(-c3cccnc3)c2)nc1

>  <cmpd_id>  (14) 
ENAMINE:Z1454497696

>  <used_subnode>  (14) 
NCc1ccccc1

>  <used_synthon>  (14) 
[Xe]c1cccnc1

>  <ref_subnode>  (14) 
NCc1ccccc1

>  <ref_synthon>  (14) 
[Xe]n1cccn1

>  <fragmentA>  (14) 
x0365_0A

>  <fragmentB>  (14) 
x0310_0A

>  <HA>  (14) 
21

>  <HBD>  (14) 
1

>  <HBA>  (14) 
3

>  <MW>  (14) 
275.14224754400004

>  <TPSA>  (14) 
37.81

>  <LogP>  (14) 
4.064120000000003

>  <RBs>  (14) 
4

>  <G_bound>  (14) 
-7.613763777824374

>  <G_unbound>  (14) 
0.10750401147608074

>  <deltaG>  (14) 
-7.721267789300455

>  <comRMSD>  (14) 
0.3581233118252068

>  <substructure_overlap_check>  (14) 
True

>  <sucos>  (14) 
0.5904710210333031

>  <interactions>  (14) 
Hydrophobic_PRO-107,Hydrophobic_GLU-106,HBAcceptor_SER-105,HBDonor_SER-105,Hydrophobic_GLU-88

>  <total_num_ints>  (14) 
5

>  <total_num_ints_nonhyd>  (14) 
2

>  <num_uniq_frag_ints>  (14) 
6

>  <num_repl_uniq_ints>  (14) 
3

>  <num_uniq_ints_lost>  (14) 
3

>  <num_new_uniq_ints>  (14) 
2

>  <int_check>  (14) 
True

>  <original SMILES>  (14) 
Cc1ccc(NCc2cccc(-c3cccnc3)c2)nc1

>  <original_name>  (14) 
x0365_0A-x0310_0A_1857_B1X

>  <ref_mols>  (14) 
Ax0365a,Ax0310a

>  <ref_pdb>  (14) 
Ax0310a

>  <rationale>  (14) 
FragNet: 1 round bioisosteric merging incl NCc1ccccc1 and [Xe]c1cccnc1 replacing [Xe]n1cccn1

$$$$
x0365_0A-x0556_0A_1479_B1X
     RDKit          3D

 23 24  0  0  0  0  0  0  0  0999 V2000
    7.4960    7.5170   31.9980 C   0  0  0  0  0  0  0  0  0  0  0  0
    6.5160    8.3630   31.2460 C   0  0  0  0  0  0  0  0  0  0  0  0
    6.8470    9.7280   31.4930 O   0  0  0  0  0  0  0  0  0  0  0  0
    6.7700   10.6020   30.4440 C   0  0  0  0  0  0  0  0  0  0  0  0
    6.1570   10.2960   29.2430 C   0  0  0  0  0  0  0  0  0  0  0  0
    6.1110   11.2260   28.2150 C   0  0  0  0  0  0  0  0  0  0  0  0
    5.4400   10.8270   26.9410 C   0  0  0  0  0  0  0  0  0  0  0  0
    6.1210   10.0360   26.0510 N   0  0  0  0  0  0  0  0  0  0  0  0
    7.2390   10.5160   25.2470 C   0  0  0  0  0  0  0  0  0  0  0  0
    7.3410   12.0140   25.1200 C   0  0  0  0  0  0  0  0  0  0  0  0
    8.3760   12.5240   24.3490 C   0  0  0  0  0  0  0  0  0  0  0  0
    9.2640   11.6390   23.7360 C   0  0  0  0  0  0  0  0  0  0  0  0
    9.1040   10.2710   23.9040 C   0  0  0  0  0  0  0  0  0  0  0  0
    8.1260    9.6980   24.6350 N   0  0  0  0  0  0  0  0  0  0  0  0
    6.6810   12.4900   28.3770 C   0  0  0  0  0  0  0  0  0  0  0  0
    7.3030   12.8090   29.5810 C   0  0  0  0  0  0  0  0  0  0  0  0
    7.3520   11.8710   30.6160 C   0  0  0  0  0  0  0  0  0  0  0  0
    7.9980   12.3190   31.7430 O   0  0  0  0  0  0  0  0  0  0  0  0
    9.0110   11.4440   32.2650 C   0  0  0  0  0  0  0  0  0  0  0  0
   10.1230   12.1720   32.6890 C   0  0  0  0  0  0  0  0  0  0  0  0
    9.8010   13.4320   33.0570 F   0  0  0  0  0  0  0  0  0  0  0  0
   10.7430   11.5820   33.7370 F   0  0  0  0  0  0  0  0  0  0  0  0
   11.0400   12.2690   31.6930 F   0  0  0  0  0  0  0  0  0  0  0  0
  1  2  1  0
  2  3  1  0
  3  4  1  0
  4  5  2  0
  5  6  1  0
  6  7  1  0
  7  8  1  0
  8  9  1  0
  9 10  2  0
 10 11  1  0
 11 12  2  0
 12 13  1  0
 13 14  2  0
  6 15  2  0
 15 16  1  0
 16 17  2  0
 17 18  1  0
 18 19  1  0
 19 20  1  0
 20 21  1  0
 20 22  1  0
 20 23  1  0
 17  4  1  0
 14  9  1  0
A    1
 C1 
A    2
 C2 
A    3
 O1 
A    4
 C3 
A    5
 C4 
A    6
 C5 
A    7
 C6 
A    8
 N1 
A    9
 C7 
A   10
 C8 
A   11
 C9 
A   12
 C10
A   13
 C11
A   14
 N2 
A   15
 C12
A   16
 C13
A   17
 C14
A   18
 O2 
A   19
 C15
A   20
 C16
A   21
 F1 
A   22
 F2 
A   23
 F3 
M  END
>  <similarity>  (15) 
1.0

>  <smiles>  (15) 
CCOc1cc(CNc2ccccn2)ccc1OCC(F)(F)F

>  <cmpd_id>  (15) 
ENAMINE:Z1405135576

>  <used_subnode>  (15) 
NCc1ccccc1

>  <used_synthon>  (15) 
[Xe]c1ccccn1

>  <ref_subnode>  (15) 
NCc1ccccc1

>  <ref_synthon>  (15) 
[Xe]n1cccn1

>  <fragmentA>  (15) 
x0365_0A

>  <fragmentB>  (15) 
x0556_0A

>  <HA>  (15) 
23

>  <HBD>  (15) 
1

>  <HBA>  (15) 
4

>  <MW>  (15) 
326.124212444

>  <TPSA>  (15) 
43.379999999999995

>  <LogP>  (15) 
4.033500000000003

>  <RBs>  (15) 
7

>  <G_bound>  (15) 
-5.251841839478435

>  <G_unbound>  (15) 
0.7736512890279006

>  <deltaG>  (15) 
-6.025493128506335

>  <comRMSD>  (15) 
0.373098431697775

>  <substructure_overlap_check>  (15) 
True

>  <sucos>  (15) 
0.6005622049817466

>  <interactions>  (15) 
Hydrophobic_PRO-107,Hydrophobic_GLU-106,HBAcceptor_SER-105,HBDonor_SER-105

>  <total_num_ints>  (15) 
4

>  <total_num_ints_nonhyd>  (15) 
2

>  <num_uniq_frag_ints>  (15) 
5

>  <num_repl_uniq_ints>  (15) 
3

>  <num_uniq_ints_lost>  (15) 
2

>  <num_new_uniq_ints>  (15) 
1

>  <int_check>  (15) 
True

>  <original SMILES>  (15) 
CCOc1cc(CNc2ccccn2)ccc1OCC(F)(F)F

>  <original_name>  (15) 
x0365_0A-x0556_0A_1479_B1X

>  <ref_mols>  (15) 
Ax0365a,Ax0556a

>  <ref_pdb>  (15) 
Ax0310a

>  <rationale>  (15) 
FragNet: 1 round bioisosteric merging incl NCc1ccccc1 and [Xe]c1ccccn1 replacing [Xe]n1cccn1

$$$$
x0365_0A-x0556_0A_1334_B1X
     RDKit          3D

 22 24  0  0  0  0  0  0  0  0999 V2000
    6.9770   13.6190   22.3540 O   0  0  0  0  0  0  0  0  0  0  0  0
    7.8440   13.6810   23.4910 C   0  0  0  0  0  0  0  0  0  0  0  0
    7.9110   12.4070   24.0200 C   0  0  0  0  0  0  0  0  0  0  0  0
    8.9310   11.5620   23.5930 C   0  0  0  0  0  0  0  0  0  0  0  0
    8.9390   10.2800   24.1220 C   0  0  0  0  0  0  0  0  0  0  0  0
    8.0160    9.8610   25.0060 N   0  0  0  0  0  0  0  0  0  0  0  0
    7.0510   10.6860   25.4130 C   0  0  0  0  0  0  0  0  0  0  0  0
    6.1420   10.1480   26.3230 N   0  0  0  0  0  0  0  0  0  0  0  0
    5.3760   11.1410   27.0540 C   0  0  0  0  0  0  0  0  0  0  0  0
    6.1110   11.3560   28.3310 C   0  0  0  0  0  0  0  0  0  0  0  0
    6.3610   10.2500   29.1310 C   0  0  0  0  0  0  0  0  0  0  0  0
    7.0570   10.3250   30.3660 C   0  0  0  0  0  0  0  0  0  0  0  0
    7.4740   11.5960   30.7180 C   0  0  0  0  0  0  0  0  0  0  0  0
    7.2310   12.7200   29.9350 C   0  0  0  0  0  0  0  0  0  0  0  0
    6.5450   12.6270   28.7310 C   0  0  0  0  0  0  0  0  0  0  0  0
    6.3170   13.8560   27.9720 C   0  0  0  0  0  0  0  0  0  0  0  0
    7.0620   14.1900   26.8350 C   0  0  0  0  0  0  0  0  0  0  0  0
    6.7900   15.3760   26.1600 C   0  0  0  0  0  0  0  0  0  0  0  0
    5.7820   16.1950   26.6410 C   0  0  0  0  0  0  0  0  0  0  0  0
    5.0410   15.9160   27.7290 N   0  0  0  0  0  0  0  0  0  0  0  0
    5.3280   14.7580   28.3640 C   0  0  0  0  0  0  0  0  0  0  0  0
    6.9670   11.9750   24.9410 C   0  0  0  0  0  0  0  0  0  0  0  0
  1  2  1  0
  2  3  1  0
  3  4  2  0
  4  5  1  0
  5  6  2  0
  6  7  1  0
  7  8  1  0
  8  9  1  0
  9 10  1  0
 10 11  2  0
 11 12  1  0
 12 13  2  0
 13 14  1  0
 14 15  2  0
 15 16  1  0
 16 17  2  0
 17 18  1  0
 18 19  2  0
 19 20  1  0
 20 21  2  0
  7 22  2  0
 22  3  1  0
 15 10  1  0
 21 16  1  0
A    1
 O1 
A    2
 C1 
A    3
 C2 
A    4
 C3 
A    5
 C4 
A    6
 N1 
A    7
 C5 
A    8
 N2 
A    9
 C6 
A   10
 C7 
A   11
 C8 
A   12
 C9 
A   13
 C10
A   14
 C11
A   15
 C12
A   16
 C13
A   17
 C14
A   18
 C15
A   19
 C16
A   20
 N3 
A   21
 C17
A   22
 C18
M  END
>  <similarity>  (16) 
1.0

>  <smiles>  (16) 
OCc1ccnc(NCc2ccccc2-c2cccnc2)c1

>  <cmpd_id>  (16) 
ENAMINE:PV-002903961430

>  <used_subnode>  (16) 
NCc1ccccc1

>  <used_synthon>  (16) 
[Xe]c1cccnc1

>  <ref_subnode>  (16) 
NCc1ccccc1

>  <ref_synthon>  (16) 
[Xe]n1cccn1

>  <fragmentA>  (16) 
x0365_0A

>  <fragmentB>  (16) 
x0556_0A

>  <HA>  (16) 
22

>  <HBD>  (16) 
2

>  <HBA>  (16) 
4

>  <MW>  (16) 
291.137162164

>  <TPSA>  (16) 
58.040000000000006

>  <LogP>  (16) 
3.248000000000001

>  <RBs>  (16) 
5

>  <G_bound>  (16) 
-5.79226602919768

>  <G_unbound>  (16) 
0.9065129849783888

>  <deltaG>  (16) 
-6.698779014176069

>  <comRMSD>  (16) 
0.38953240039178577

>  <substructure_overlap_check>  (16) 
True

>  <sucos>  (16) 
0.6026988217894366

>  <interactions>  (16) 
Hydrophobic_PRO-107,HBAcceptor_GLY-127,HBDonor_GLY-127,Hydrophobic_GLU-106,HBDonor_GLY-128

>  <total_num_ints>  (16) 
5

>  <total_num_ints_nonhyd>  (16) 
3

>  <num_uniq_frag_ints>  (16) 
5

>  <num_repl_uniq_ints>  (16) 
2

>  <num_uniq_ints_lost>  (16) 
3

>  <num_new_uniq_ints>  (16) 
3

>  <int_check>  (16) 
True

>  <original SMILES>  (16) 
OCc1ccnc(NCc2ccccc2-c2cccnc2)c1

>  <original_name>  (16) 
x0365_0A-x0556_0A_1334_B1X

>  <ref_mols>  (16) 
Ax0365a,Ax0556a

>  <ref_pdb>  (16) 
Ax0310a

>  <rationale>  (16) 
FragNet: 1 round bioisosteric merging incl NCc1ccccc1 and [Xe]c1cccnc1 replacing [Xe]n1cccn1

$$$$
x0365_0A-x0310_0A_1869_B1X
     RDKit          3D

 23 25  0  0  0  0  0  0  0  0999 V2000
   10.4180   13.2720   22.0060 N   0  0  0  0  0  0  0  0  0  0  0  0
   10.6310   12.6330   23.1810 C   0  0  0  0  0  0  0  0  0  0  0  0
   11.7170   12.7300   23.7300 O   0  0  0  0  0  0  0  0  0  0  0  0
    9.5050   11.8340   23.8250 C   0  0  0  0  0  0  0  0  0  0  0  0
    8.5380   12.6940   24.6070 C   0  0  0  0  0  0  0  0  0  0  0  0
    7.4520   11.8950   25.2670 C   0  0  0  0  0  0  0  0  0  0  0  0
    7.4000   10.5250   25.1330 C   0  0  0  0  0  0  0  0  0  0  0  0
    6.3250    9.9520   25.8260 N   0  0  0  0  0  0  0  0  0  0  0  0
    5.4660   10.7510   26.7090 C   0  0  0  0  0  0  0  0  0  0  0  0
    6.1130   11.1790   28.0230 C   0  0  0  0  0  0  0  0  0  0  0  0
    6.2210   10.0550   29.0390 C   0  0  0  0  0  0  0  0  0  0  0  0
    6.8690   10.4400   30.3720 C   0  0  0  0  0  0  0  0  0  0  0  0
    7.3070   11.7410   30.5820 C   0  0  0  0  0  0  0  0  0  0  0  0
    7.1670   12.7220   29.5940 C   0  0  0  0  0  0  0  0  0  0  0  0
    6.5840   12.4760   28.3310 C   0  0  0  0  0  0  0  0  0  0  0  0
    6.4910   13.5190   27.4210 C   0  0  0  0  0  0  0  0  0  0  0  0
    7.5840   14.3470   27.2030 C   0  0  0  0  0  0  0  0  0  0  0  0
    7.4790   15.3750   26.2910 C   0  0  0  0  0  0  0  0  0  0  0  0
    6.2040   15.5880   25.5550 C   0  0  0  0  0  0  0  0  0  0  0  0
    5.1570   14.7700   25.7910 N   0  0  0  0  0  0  0  0  0  0  0  0
    5.3220   13.7760   26.6980 C   0  0  0  0  0  0  0  0  0  0  0  0
    8.3060    9.7970   24.3940 N   0  0  0  0  0  0  0  0  0  0  0  0
    9.3270   10.4520   23.7600 C   0  0  0  0  0  0  0  0  0  0  0  0
  1  2  1  0
  2  3  2  0
  2  4  1  0
  4  5  2  0
  5  6  1  0
  6  7  2  0
  7  8  1  0
  8  9  1  0
  9 10  1  0
 10 11  2  0
 11 12  1  0
 12 13  2  0
 13 14  1  0
 14 15  2  0
 15 16  1  0
 16 17  2  0
 17 18  1  0
 18 19  2  0
 19 20  1  0
 20 21  2  0
  7 22  1  0
 22 23  2  0
 23  4  1  0
 15 10  1  0
 21 16  1  0
A    1
 N1 
A    2
 C1 
A    3
 O1 
A    4
 C2 
A    5
 C3 
A    6
 C4 
A    7
 C5 
A    8
 N2 
A    9
 C6 
A   10
 C7 
A   11
 C8 
A   12
 C9 
A   13
 C10
A   14
 C11
A   15
 C12
A   16
 C13
A   17
 C14
A   18
 C15
A   19
 C16
A   20
 N3 
A   21
 C17
A   22
 N4 
A   23
 C18
M  END
>  <similarity>  (17) 
1.0

>  <smiles>  (17) 
NC(=O)c1ccc(NCc2ccccc2-c2cccnc2)nc1

>  <cmpd_id>  (17) 
ENAMINE:PV-003040085890

>  <used_subnode>  (17) 
NCc1ccccc1

>  <used_synthon>  (17) 
[Xe]c1cccnc1

>  <ref_subnode>  (17) 
NCc1ccccc1

>  <ref_synthon>  (17) 
[Xe]n1cccn1

>  <fragmentA>  (17) 
x0365_0A

>  <fragmentB>  (17) 
x0310_0A

>  <HA>  (17) 
23

>  <HBD>  (17) 
2

>  <HBA>  (17) 
4

>  <MW>  (17) 
304.132411132

>  <TPSA>  (17) 
80.9

>  <LogP>  (17) 
2.8546000000000014

>  <RBs>  (17) 
5

>  <G_bound>  (17) 
-6.610403783211447

>  <G_unbound>  (17) 
0.8944247962573464

>  <deltaG>  (17) 
-7.504828579468793

>  <comRMSD>  (17) 
0.457067611319738

>  <substructure_overlap_check>  (17) 
True

>  <sucos>  (17) 
0.6112237605728211

>  <interactions>  (17) 
Hydrophobic_PRO-107,HBDonor_SER-125,Hydrophobic_GLU-106,HBAcceptor_SER-105,HBDonor_SER-105

>  <total_num_ints>  (17) 
5

>  <total_num_ints_nonhyd>  (17) 
3

>  <num_uniq_frag_ints>  (17) 
6

>  <num_repl_uniq_ints>  (17) 
4

>  <num_uniq_ints_lost>  (17) 
2

>  <num_new_uniq_ints>  (17) 
1

>  <int_check>  (17) 
True

>  <original SMILES>  (17) 
NC(=O)c1ccc(NCc2ccccc2-c2cccnc2)nc1

>  <original_name>  (17) 
x0365_0A-x0310_0A_1869_B1X

>  <ref_mols>  (17) 
Ax0365a,Ax0310a

>  <ref_pdb>  (17) 
Ax0310a

>  <rationale>  (17) 
FragNet: 1 round bioisosteric merging incl NCc1ccccc1 and [Xe]c1cccnc1 replacing [Xe]n1cccn1

$$$$
x0365_0A-x0310_0A_3022_B1X
     RDKit          3D

 23 24  0  0  0  0  0  0  0  0999 V2000
   12.1610   14.0090   22.4330 C   0  0  0  0  0  0  0  0  0  0  0  0
   11.1210   13.4920   23.3920 C   0  0  0  0  0  0  0  0  0  0  0  0
   10.9940   13.9800   24.5100 O   0  0  0  0  0  0  0  0  0  0  0  0
   10.3700   12.4580   22.8930 N   0  0  0  0  0  0  0  0  0  0  0  0
    9.3900   11.7910   23.6380 C   0  0  0  0  0  0  0  0  0  0  0  0
    9.2520   10.4240   23.7460 C   0  0  0  0  0  0  0  0  0  0  0  0
    8.2250    9.9190   24.5330 C   0  0  0  0  0  0  0  0  0  0  0  0
    7.3430   10.7650   25.2040 C   0  0  0  0  0  0  0  0  0  0  0  0
    6.3120   10.1780   25.9680 N   0  0  0  0  0  0  0  0  0  0  0  0
    5.4670   10.9520   26.8680 C   0  0  0  0  0  0  0  0  0  0  0  0
    6.1500   11.2370   28.1690 C   0  0  0  0  0  0  0  0  0  0  0  0
    6.2620   10.2280   29.1280 C   0  0  0  0  0  0  0  0  0  0  0  0
    6.8990   10.4790   30.3400 C   0  0  0  0  0  0  0  0  0  0  0  0
    7.4320   11.7390   30.6140 C   0  0  0  0  0  0  0  0  0  0  0  0
    8.0280   11.8340   31.8370 O   0  0  0  0  0  0  0  0  0  0  0  0
    7.2190   11.7220   33.0120 C   0  0  2  0  0  0  0  0  0  0  0  0
    6.1070   12.7670   32.9650 C   0  0  0  0  0  0  0  0  0  0  0  0
    8.0660   11.9570   34.2050 C   0  0  0  0  0  0  0  0  0  0  0  0
    8.7190   12.1720   35.1400 N   0  0  0  0  0  0  0  0  0  0  0  0
    7.3210   12.7530   29.6610 C   0  0  0  0  0  0  0  0  0  0  0  0
    6.6810   12.5000   28.4430 C   0  0  0  0  0  0  0  0  0  0  0  0
    7.4710   12.0980   25.1090 N   0  0  0  0  0  0  0  0  0  0  0  0
    8.4760   12.5690   24.3400 C   0  0  0  0  0  0  0  0  0  0  0  0
  1  2  1  0
  2  3  2  0
  2  4  1  0
  4  5  1  0
  5  6  2  0
  6  7  1  0
  7  8  2  0
  8  9  1  0
  9 10  1  0
 10 11  1  0
 11 12  2  0
 12 13  1  0
 13 14  2  0
 14 15  1  0
 15 16  1  0
 16 17  1  6
 16 18  1  0
 18 19  3  0
 14 20  1  0
 20 21  2  0
  8 22  1  0
 22 23  2  0
 23  5  1  0
 21 11  1  0
A    1
 C1 
A    2
 C2 
A    3
 O1 
A    4
 N1 
A    5
 C3 
A    6
 C4 
A    7
 C5 
A    8
 C6 
A    9
 N2 
A   10
 C7 
A   11
 C8 
A   12
 C9 
A   13
 C10
A   14
 C11
A   15
 O2 
A   16
 C12
A   17
 C13
A   18
 C14
A   19
 N3 
A   20
 C15
A   21
 C16
A   22
 N4 
A   23
 C17
M  END
>  <similarity>  (18) 
1.0

>  <smiles>  (18) 
CC(=O)Nc1ccc(NCc2ccc(OC(C)C#N)cc2)nc1

>  <cmpd_id>  (18) 
ENAMINE:Z1653825833

>  <used_subnode>  (18) 
NCc1ccccc1

>  <used_synthon>  (18) 
CC(=O)N[Xe]

>  <ref_subnode>  (18) 
NCc1ccccc1

>  <ref_synthon>  (18) 
N#CCC(=O)N[Xe]

>  <fragmentA>  (18) 
x0365_0A

>  <fragmentB>  (18) 
x0310_0A

>  <HA>  (18) 
23

>  <HBD>  (18) 
2

>  <HBA>  (18) 
5

>  <MW>  (18) 
310.142975816

>  <TPSA>  (18) 
87.04

>  <LogP>  (18) 
2.9429800000000013

>  <RBs>  (18) 
6

>  <G_bound>  (18) 
-8.824128309096656

>  <G_unbound>  (18) 
0.43222440890957037

>  <deltaG>  (18) 
-9.256352718006227

>  <comRMSD>  (18) 
0.41583550879351194

>  <substructure_overlap_check>  (18) 
True

>  <sucos>  (18) 
0.6368075571359875

>  <interactions>  (18) 
Hydrophobic_PRO-107,Hydrophobic_HIS-21,HBDonor_SER-125,Hydrophobic_GLU-106,HBDonor_SER-105

>  <total_num_ints>  (18) 
5

>  <total_num_ints_nonhyd>  (18) 
2

>  <num_uniq_frag_ints>  (18) 
6

>  <num_repl_uniq_ints>  (18) 
5

>  <num_uniq_ints_lost>  (18) 
1

>  <num_new_uniq_ints>  (18) 
0

>  <int_check>  (18) 
True

>  <original SMILES>  (18) 
CC(=O)Nc1ccc(NCc2ccc(OC(C)C#N)cc2)nc1

>  <original_name>  (18) 
x0365_0A-x0310_0A_3022_B1X

>  <ref_mols>  (18) 
Ax0365a,Ax0310a

>  <ref_pdb>  (18) 
Ax0310a

>  <rationale>  (18) 
FragNet: 1 round bioisosteric merging incl NCc1ccccc1 and CC(=O)N[Xe] replacing N#CCC(=O)N[Xe]

$$$$
x0365_0A-x0310_0A_2896_B1X_rgrp-0
     RDKit          3D

 20 21  0  0  0  0  0  0  0  0999 V2000
   12.1920   14.1350   22.4090 C   0  0  0  0  0  0  0  0  0  0  0  0
   11.1790   13.6300   23.3950 C   0  0  0  0  0  0  0  0  0  0  0  0
   11.0720   14.1440   24.5030 O   0  0  0  0  0  0  0  0  0  0  0  0
   10.4250   12.5670   22.9280 N   0  0  0  0  0  0  0  0  0  0  0  0
    9.4120   11.9370   23.6730 C   0  0  0  0  0  0  0  0  0  0  0  0
    8.5000   12.7930   24.3950 C   0  0  0  0  0  0  0  0  0  0  0  0
    7.4900   12.2170   25.1360 C   0  0  0  0  0  0  0  0  0  0  0  0
    7.2870   10.6940   25.2310 C   0  0  0  0  0  0  0  0  0  0  0  0
    6.2350   10.1390   25.9840 N   0  0  0  0  0  0  0  0  0  0  0  0
    5.5270   10.9780   26.9450 C   0  0  0  0  0  0  0  0  0  0  0  0
    6.1550   11.3160   28.1150 C   0  0  0  0  0  0  0  0  0  0  0  0
    6.2470   10.1840   28.9430 C   0  0  0  0  0  0  0  0  0  0  0  0
    6.9510   10.4410   30.3020 C   0  0  0  0  0  0  0  0  0  0  0  0
    7.4480   11.7070   30.6520 C   0  0  0  0  0  0  0  0  0  0  0  0
    8.1380   11.8640   32.0240 C   0  0  0  0  0  0  0  0  0  0  0  0
    7.3170   12.7860   29.7770 C   0  0  0  0  0  0  0  0  0  0  0  0
    6.6400   12.5750   28.4550 C   0  0  0  0  0  0  0  0  0  0  0  0
    6.5160   13.6120   27.6140 F   0  0  0  0  0  0  0  0  0  0  0  0
    8.1970    9.9800   24.5200 N   0  0  0  0  0  0  0  0  0  0  0  0
    9.1940   10.5670   23.7910 C   0  0  0  0  0  0  0  0  0  0  0  0
  1  2  1  0
  2  3  2  0
  2  4  1  0
  4  5  1  0
  5  6  2  0
  6  7  1  0
  7  8  2  0
  8  9  1  0
  9 10  1  0
 10 11  1  0
 11 12  2  0
 12 13  1  0
 13 14  2  0
 14 15  1  0
 14 16  1  0
 16 17  2  0
 17 18  1  0
  8 19  1  0
 19 20  2  0
 20  5  1  0
 17 11  1  0
A    1
 C1 
A    2
 C2 
A    3
 O1 
A    4
 N1 
A    5
 C3 
A    6
 C4 
A    7
 C5 
A    8
 C6 
A    9
 N2 
A   10
 C7 
A   11
 C8 
A   12
 C9 
A   13
 C10
A   14
 C11
A   15
 C12
A   16
 C13
A   17
 C14
A   18
 F1 
A   19
 N3 
A   20
 C15
M  END
>  <similarity>  (19) 
1.0

>  <smiles>  (19) 
CC(=O)Nc1ccc(NCc2ccc(C)cc2F)nc1

>  <cmpd_id>  (19) 
ENAMINE:PV-002122791896

>  <used_subnode>  (19) 
NCc1ccccc1

>  <used_synthon>  (19) 
CC(=O)N[Xe]

>  <ref_subnode>  (19) 
NCc1ccccc1

>  <ref_synthon>  (19) 
N#CCC(=O)N[Xe]

>  <fragmentA>  (19) 
x0365_0A

>  <fragmentB>  (19) 
x0310_0A

>  <HA>  (19) 
20

>  <HBD>  (19) 
2

>  <HBA>  (19) 
3

>  <MW>  (19) 
273.127740352

>  <TPSA>  (19) 
54.02

>  <LogP>  (19) 
3.0996200000000016

>  <RBs>  (19) 
4

>  <G_bound>  (19) 
-7.995083485018719

>  <G_unbound>  (19) 
0.5530651448546108

>  <deltaG>  (19) 
-8.54814862987333

>  <comRMSD>  (19) 
0.14751956101929367

>  <substructure_overlap_check>  (19) 
True

>  <sucos>  (19) 
0.6787866879384047

>  <interactions>  (19) 
Hydrophobic_GLU-106,Hydrophobic_PRO-107,Hydrophobic_HIS-21,HBDonor_SER-105,HBDonor_SER-125

>  <total_num_ints>  (19) 
5

>  <total_num_ints_nonhyd>  (19) 
2

>  <num_uniq_frag_ints>  (19) 
6

>  <num_repl_uniq_ints>  (19) 
5

>  <num_uniq_ints_lost>  (19) 
1

>  <num_new_uniq_ints>  (19) 
0

>  <int_check>  (19) 
True

>  <original SMILES>  (19) 
CC(=O)Nc1ccc(NCc2ccc(C)cc2F)nc1

>  <original_name>  (19) 
x0365_0A-x0310_0A_2896_B1X_rgrp-0

>  <ref_mols>  (19) 
Ax0365a,Ax0310a

>  <ref_pdb>  (19) 
Ax0310a

>  <rationale>  (19) 
FragNet: 1 round bioisosteric merging incl NCc1ccccc1 and CC(=O)N[Xe] replacing N#CCC(=O)N[Xe]

$$$$
x0732_0A-x1140_0A_1983_PXX
     RDKit          3D

 22 23  0  0  0  0  0  0  0  0999 V2000
   14.3930   12.8790   22.5930 C   0  0  0  0  0  0  0  0  0  0  0  0
   13.7360   13.2380   23.9010 C   0  0  0  0  0  0  0  0  0  0  0  0
   13.5880   14.5930   24.2010 C   0  0  0  0  0  0  0  0  0  0  0  0
   12.1870   12.8900   23.8050 C   0  0  0  0  0  0  0  0  0  0  0  0
   11.3600   13.5650   24.6560 O   0  0  0  0  0  0  0  0  0  0  0  0
   11.6210   11.9510   22.9230 N   0  0  0  0  0  0  0  0  0  0  0  0
   10.3410   11.5530   23.3700 C   0  0  0  0  0  0  0  0  0  0  0  0
    9.8190   10.1440   23.6250 C   0  0  0  0  0  0  0  0  0  0  0  0
    8.4290    9.9490   24.2120 C   0  0  0  0  0  0  0  0  0  0  0  0
    7.6440   11.2520   24.4730 C   0  0  0  0  0  0  0  0  0  0  0  0
    8.2590   12.5900   24.1350 C   0  0  0  0  0  0  0  0  0  0  0  0
    7.4880   13.8210   24.3460 N   0  0  0  0  0  0  0  0  0  0  0  0
    6.6050   14.0900   23.1920 C   0  0  0  0  0  0  0  0  0  0  0  0
    6.5100   13.4970   22.1180 O   0  0  0  0  0  0  0  0  0  0  0  0
    5.7560   15.3080   23.5200 C   0  0  0  0  0  0  0  0  0  0  0  0
    6.3370   16.0600   24.5670 O   0  0  0  0  0  0  0  0  0  0  0  0
    9.5370   12.6500   23.6310 C   0  0  0  0  0  0  0  0  0  0  0  0
   14.4210   12.5540   25.0820 N   0  0  0  0  0  0  0  0  0  0  0  0
   15.6730   11.8260   24.8520 C   0  0  0  0  0  0  0  0  0  0  0  0
   16.2330   11.7480   26.2680 C   0  0  0  0  0  0  0  0  0  0  0  0
   15.4330   12.3510   27.1980 C   0  0  0  0  0  0  0  0  0  0  0  0
   14.7780   13.3610   26.2720 C   0  0  0  0  0  0  0  0  0  0  0  0
  1  2  1  0
  2  3  1  0
  2  4  1  0
  4  5  2  0
  4  6  1  0
  6  7  1  0
  7  8  2  0
  8  9  1  0
  9 10  2  0
 10 11  1  0
 11 12  1  0
 12 13  1  0
 13 14  2  0
 13 15  1  0
 15 16  1  0
 11 17  2  0
  2 18  1  0
 18 19  1  0
 19 20  1  0
 20 21  1  0
 21 22  1  0
 17  7  1  0
 22 18  1  0
A    1
 C1 
A    2
 C2 
A    3
 C3 
A    4
 C4 
A    5
 O1 
A    6
 N1 
A    7
 C5 
A    8
 C6 
A    9
 C7 
A   10
 C8 
A   11
 C9 
A   12
 N2 
A   13
 C10
A   14
 O2 
A   15
 C11
A   16
 O3 
A   17
 C12
A   18
 N3 
A   19
 C13
A   20
 C14
A   21
 C15
A   22
 C16
M  END
>  <similarity>  (20) 
NA

>  <smiles>  (20) 
CC(C)(C(=O)Nc1cccc(NC(=O)CO)c1)N1CCCC1

>  <cmpd_id>  (20) 
ENAMINE:PV-003511753667

>  <used_subnode>  (20) 
NA

>  <used_synthon>  (20) 
NA

>  <ref_subnode>  (20) 
O=C(CO)Nc1ccccc1

>  <ref_synthon>  (20) 
[Xe]N1CCCC1

>  <fragmentA>  (20) 
x0732_0A

>  <fragmentB>  (20) 
x1140_0A

>  <HA>  (20) 
22

>  <HBD>  (20) 
3

>  <HBA>  (20) 
4

>  <MW>  (20) 
305.173941596

>  <TPSA>  (20) 
81.67

>  <LogP>  (20) 
1.4303

>  <RBs>  (20) 
5

>  <G_bound>  (20) 
-8.8731201933912

>  <G_unbound>  (20) 
0.42666648943586255

>  <deltaG>  (20) 
-9.299786682827063

>  <comRMSD>  (20) 
0.6840754231646653

>  <substructure_overlap_check>  (20) 
True

>  <sucos>  (20) 
0.5504999049312492

>  <interactions>  (20) 
Hydrophobic_PRO-107,HBDonor_SER-87,HBDonor_ALA-86,Hydrophobic_TYR-90,HBAcceptor_GLY-127,Hydrophobic_HIS-21,Hydrophobic_LEU-22,Hydrophobic_TYR-89,Hydrophobic_CYS-110

>  <total_num_ints>  (20) 
9

>  <total_num_ints_nonhyd>  (20) 
3

>  <num_uniq_frag_ints>  (20) 
7

>  <num_repl_uniq_ints>  (20) 
3

>  <num_uniq_ints_lost>  (20) 
4

>  <num_new_uniq_ints>  (20) 
6

>  <int_check>  (20) 
True

>  <original SMILES>  (20) 
CC(C)(C(=O)Nc1cccc(NC(=O)CO)c1)N1CCCC1

>  <original_name>  (20) 
x0732_0A-x1140_0A_1983_PXX

>  <ref_mols>  (20) 
Ax0732a,Ax1140a

>  <ref_pdb>  (20) 
Ax0310a

>  <rationale>  (20) 
FragNet: perfect merge incl O=C(CO)Nc1ccccc1,[Xe]N1CCCC1

$$$$
x0365_0A-x0719_1A_63_B1X
     RDKit          3D

 22 23  0  0  0  0  0  0  0  0999 V2000
   10.0380    9.2990   22.9190 C   0  0  0  0  0  0  0  0  0  0  0  0
    9.1230   10.0910   23.6960 N   0  0  0  0  0  0  0  0  0  0  0  0
    9.0940   11.4510   23.6550 C   0  0  0  0  0  0  0  0  0  0  0  0
    8.0270   11.9000   24.5550 C   0  0  0  0  0  0  0  0  0  0  0  0
    7.7380   13.2950   24.7350 C   0  0  0  0  0  0  0  0  0  0  0  0
    7.4130   14.0840   23.5100 N   0  0  0  0  0  0  0  0  0  0  0  0
    8.0010   14.0140   22.2700 C   0  0  0  0  0  0  0  0  0  0  0  0
    7.3700   13.5630   21.3640 O   0  0  0  0  0  0  0  0  0  0  0  0
    9.3150   14.4800   22.2430 O   0  0  0  0  0  0  0  0  0  0  0  0
   10.0700   15.2500   21.1800 C   0  0  0  0  0  0  0  0  0  0  0  0
    9.1860   16.1870   20.3310 C   0  0  0  0  0  0  0  0  0  0  0  0
   11.4500   15.7550   21.7010 C   0  0  0  0  0  0  0  0  0  0  0  0
   10.5440   14.3210   20.1380 C   0  0  0  0  0  0  0  0  0  0  0  0
    7.5280   10.6170   25.0590 C   0  0  0  0  0  0  0  0  0  0  0  0
    6.5220   10.3760   25.9390 N   0  0  0  0  0  0  0  0  0  0  0  0
    5.8940   11.3830   26.7870 C   0  0  0  0  0  0  0  0  0  0  0  0
    6.0060   11.1200   28.1420 C   0  0  0  0  0  0  0  0  0  0  0  0
    5.8730    9.8130   28.6460 C   0  0  0  0  0  0  0  0  0  0  0  0
    6.0550    9.9840   29.9930 C   0  0  0  0  0  0  0  0  0  0  0  0
    6.2790   11.2990   30.2650 O   0  0  0  0  0  0  0  0  0  0  0  0
    6.2480   12.0320   29.0890 N   0  0  0  0  0  0  0  0  0  0  0  0
    8.2110    9.5750   24.5240 N   0  0  0  0  0  0  0  0  0  0  0  0
  1  2  1  0
  2  3  1  0
  3  4  2  0
  4  5  1  0
  5  6  1  0
  6  7  1  0
  7  8  2  0
  7  9  1  0
  9 10  1  0
 10 11  1  0
 10 12  1  0
 10 13  1  0
  4 14  1  0
 14 15  1  0
 15 16  1  0
 16 17  1  0
 17 18  1  0
 18 19  2  0
 19 20  1  0
 20 21  1  0
 14 22  2  0
 22  2  1  0
 21 17  2  0
A    1
 C1 
A    2
 N1 
A    3
 C2 
A    4
 C3 
A    5
 C4 
A    6
 N2 
A    7
 C5 
A    8
 O1 
A    9
 O2 
A   10
 C6 
A   11
 C7 
A   12
 C8 
A   13
 C9 
A   14
 C10
A   15
 N3 
A   16
 C11
A   17
 C12
A   18
 C13
A   19
 C14
A   20
 O3 
A   21
 N4 
A   22
 N5 
M  END
>  <similarity>  (21) 
1.0

>  <smiles>  (21) 
Cn1cc(CNC(=O)OC(C)(C)C)c(NCc2ccon2)n1

>  <cmpd_id>  (21) 
ENAMINE:Z3392042387

>  <used_subnode>  (21) 
CNc1ccn(C)n1

>  <used_synthon>  (21) 
CC(C)(C)OC(=O)NC[Xe]

>  <ref_subnode>  (21) 
CNc1ccn(C)n1

>  <ref_synthon>  (21) 
CC([Xe])CS(N)(=O)=O

>  <fragmentA>  (21) 
x0365_0A

>  <fragmentB>  (21) 
x0719_1A

>  <HA>  (21) 
22

>  <HBD>  (21) 
2

>  <HBA>  (21) 
7

>  <MW>  (21) 
307.1644395320001

>  <TPSA>  (21) 
94.21000000000001

>  <LogP>  (21) 
2.0448999999999997

>  <RBs>  (21) 
5

>  <G_bound>  (21) 
-8.715594534799207

>  <G_unbound>  (21) 
0.6598115073381746

>  <deltaG>  (21) 
-9.375406042137381

>  <comRMSD>  (21) 
1.1402423174944925

>  <substructure_overlap_check>  (21) 
True

>  <sucos>  (21) 
0.5507493855415994

>  <interactions>  (21) 
Hydrophobic_TYR-90,Hydrophobic_PRO-107,Hydrophobic_TYR-89,Hydrophobic_THR-126,HBAcceptor_GLY-127,Hydrophobic_VAL-84,Hydrophobic_GLU-106,HBDonor_SER-105

>  <total_num_ints>  (21) 
8

>  <total_num_ints_nonhyd>  (21) 
2

>  <num_uniq_frag_ints>  (21) 
4

>  <num_repl_uniq_ints>  (21) 
4

>  <num_uniq_ints_lost>  (21) 
0

>  <num_new_uniq_ints>  (21) 
4

>  <int_check>  (21) 
True

>  <original SMILES>  (21) 
Cn1cc(CNC(=O)OC(C)(C)C)c(NCc2ccon2)n1

>  <original_name>  (21) 
x0365_0A-x0719_1A_63_B1X

>  <ref_mols>  (21) 
Ax0365a,Ax0719a

>  <ref_pdb>  (21) 
Ax0310a

>  <rationale>  (21) 
FragNet: 1 round bioisosteric merging incl CNc1ccn(C)n1 and CC(C)(C)OC(=O)NC[Xe] replacing CC([Xe])CS(N)(=O)=O

$$$$
x0446_0A-x0719_1A_1297_B1X
     RDKit          3D

 22 23  0  0  0  0  0  0  0  0999 V2000
    2.3380   13.2470   26.8890 C   0  0  0  0  0  0  0  0  0  0  0  0
    3.5080   12.7650   27.6740 C   0  0  0  0  0  0  0  0  0  0  0  0
    4.8290   13.2970   27.1000 C   0  0  0  0  0  0  0  0  0  0  0  0
    5.7000   12.3090   26.4010 C   0  0  0  0  0  0  0  0  0  0  0  0
    5.4730   11.0230   26.3920 N   0  0  0  0  0  0  0  0  0  0  0  0
    6.4600   10.4140   25.6460 C   0  0  0  0  0  0  0  0  0  0  0  0
    7.4430   11.1880   25.0900 C   0  0  0  0  0  0  0  0  0  0  0  0
    8.6140   10.7630   24.2460 C   0  0  0  0  0  0  0  0  0  0  0  0
    9.2270    9.7760   24.4800 O   0  0  0  0  0  0  0  0  0  0  0  0
    9.0020   11.4300   23.1070 N   0  0  0  0  0  0  0  0  0  0  0  0
    9.6640   12.7100   23.0800 C   0  0  0  0  0  0  0  0  0  0  0  0
    9.0110   13.5940   23.9150 C   0  0  0  0  0  0  0  0  0  0  0  0
    9.5930   13.7870   25.1220 C   0  0  0  0  0  0  0  0  0  0  0  0
    9.0050   14.6750   26.1740 C   0  0  0  0  0  0  0  0  0  0  0  0
    7.8280   15.3250   25.9240 C   0  0  0  0  0  0  0  0  0  0  0  0
    7.2470   15.1620   24.6800 C   0  0  0  0  0  0  0  0  0  0  0  0
    7.8270   14.3430   23.6900 C   0  0  0  0  0  0  0  0  0  0  0  0
    7.0270   14.3520   22.1390 S   0  0  0  0  0  6  0  0  0  0  0  0
    5.6420   15.2670   22.3980 N   0  0  0  0  0  0  0  0  0  0  0  0
    7.9210   15.1000   21.2810 O   0  0  0  0  0  0  0  0  0  0  0  0
    6.5810   13.0990   21.7400 O   0  0  0  0  0  0  0  0  0  0  0  0
    7.1040   12.7970   25.5360 S   0  0  0  0  0  0  0  0  0  0  0  0
  1  2  1  0
  2  3  1  0
  3  4  1  0
  4  5  2  0
  5  6  1  0
  6  7  2  0
  7  8  1  0
  8  9  2  0
  8 10  1  0
 10 11  1  0
 11 12  1  0
 12 13  2  0
 13 14  1  0
 14 15  2  0
 15 16  1  0
 16 17  2  0
 17 18  1  0
 18 19  1  0
 18 20  2  0
 18 21  2  0
  7 22  1  0
 22  4  1  0
 17 12  1  0
A    1
 C1 
A    2
 C2 
A    3
 C3 
A    4
 C4 
A    5
 N1 
A    6
 C5 
A    7
 C6 
A    8
 C7 
A    9
 O1 
A   10
 N2 
A   11
 C8 
A   12
 C9 
A   13
 C10
A   14
 C11
A   15
 C12
A   16
 C13
A   17
 C14
A   18
 S1 
A   19
 N3 
A   20
 O2 
A   21
 O3 
A   22
 S2 
M  END
>  <similarity>  (22) 
1.0

>  <smiles>  (22) 
CCCc1ncc(C(=O)NCc2ccccc2S(N)(=O)=O)s1

>  <cmpd_id>  (22) 
ENAMINE:Z2099658908

>  <used_subnode>  (22) 
CNC(=O)c1cncs1

>  <used_synthon>  (22) 
NS(=O)(=O)[Xe]

>  <ref_subnode>  (22) 
CNC(=O)c1cncs1

>  <ref_synthon>  (22) 
CC([Xe])CS(N)(=O)=O

>  <fragmentA>  (22) 
x0446_0A

>  <fragmentB>  (22) 
x0719_1A

>  <HA>  (22) 
22

>  <HBD>  (22) 
2

>  <HBA>  (22) 
5

>  <MW>  (22) 
339.07113340399997

>  <TPSA>  (22) 
102.15

>  <LogP>  (22) 
1.673

>  <RBs>  (22) 
6

>  <G_bound>  (22) 
-1.965666425710574

>  <G_unbound>  (22) 
1.7141308049810298

>  <deltaG>  (22) 
-3.679797230691604

>  <comRMSD>  (22) 
1.291847560788998

>  <substructure_overlap_check>  (22) 
True

>  <sucos>  (22) 
0.5546501461808049

>  <interactions>  (22) 
HBDonor_GLU-85,Hydrophobic_PRO-107,HBAcceptor_GLY-127

>  <total_num_ints>  (22) 
3

>  <total_num_ints_nonhyd>  (22) 
2

>  <num_uniq_frag_ints>  (22) 
2

>  <num_repl_uniq_ints>  (22) 
2

>  <num_uniq_ints_lost>  (22) 
0

>  <num_new_uniq_ints>  (22) 
1

>  <int_check>  (22) 
True

>  <original SMILES>  (22) 
CCCc1ncc(C(=O)NCc2ccccc2S(N)(=O)=O)s1

>  <original_name>  (22) 
x0446_0A-x0719_1A_1297_B1X

>  <ref_mols>  (22) 
Ax0446a,Ax0719a

>  <ref_pdb>  (22) 
Ax0310a

>  <rationale>  (22) 
FragNet: 1 round bioisosteric merging incl CNC(=O)c1cncs1 and NS(=O)(=O)[Xe] replacing CC([Xe])CS(N)(=O)=O

$$$$
x0310_0A-x0719_1A_4111_B1X
     RDKit          3D

 24 26  0  0  0  0  0  0  0  0999 V2000
   10.1000    8.9890   22.6890 C   0  0  0  0  0  0  0  0  0  0  0  0
    9.4150   10.0530   23.4460 C   0  0  0  0  0  0  0  0  0  0  0  0
    9.6950   11.4100   23.3490 C   0  0  0  0  0  0  0  0  0  0  0  0
    8.8400   12.0500   24.1980 C   0  0  0  0  0  0  0  0  0  0  0  0
    8.8540   13.5410   24.3500 C   0  0  0  0  0  0  0  0  0  0  0  0
    8.3600   14.2660   25.5540 C   0  0  0  0  0  0  0  0  0  0  0  0
    9.0070   14.7580   26.5930 N   0  0  0  0  0  0  0  0  0  0  0  0
    8.0340   15.3180   27.3590 C   0  0  0  0  0  0  0  0  0  0  0  0
    8.4050   15.9940   28.6850 C   0  0  0  0  0  0  0  0  0  0  0  0
    9.8680   16.1600   29.0220 C   0  0  0  0  0  0  0  0  0  0  0  0
    9.8480   16.7890   30.2440 C   0  0  0  0  0  0  0  0  0  0  0  0
    8.5540   17.0090   30.6670 O   0  0  0  0  0  0  0  0  0  0  0  0
    7.6900   16.5260   29.7180 C   0  0  0  0  0  0  0  0  0  0  0  0
    6.8060   15.2180   26.8490 N   0  0  0  0  0  0  0  0  0  0  0  0
    7.0680   14.5560   25.7030 N   0  0  0  0  0  0  0  0  0  0  0  0
    6.0210   14.2420   24.7800 C   0  0  0  0  0  0  0  0  0  0  0  0
    6.0850   15.2160   23.6210 C   0  0  0  0  0  0  0  0  0  0  0  0
    6.7470   14.5400   22.0890 S   0  0  0  0  0  6  0  0  0  0  0  0
    5.3900   14.9020   21.1990 N   0  0  0  0  0  0  0  0  0  0  0  0
    6.8220   13.1390   22.2320 O   0  0  0  0  0  0  0  0  0  0  0  0
    7.7980   15.2210   21.3760 O   0  0  0  0  0  0  0  0  0  0  0  0
    8.0700   11.0400   24.7730 N   0  0  0  0  0  0  0  0  0  0  0  0
    6.9970   11.1250   25.7380 C   0  0  0  0  0  0  0  0  0  0  0  0
    8.4250    9.8130   24.3160 N   0  0  0  0  0  0  0  0  0  0  0  0
  1  2  1  0
  2  3  1  0
  3  4  2  0
  4  5  1  0
  5  6  1  0
  6  7  2  0
  7  8  1  0
  8  9  1  0
  9 10  1  0
 10 11  2  0
 11 12  1  0
 12 13  1  0
  8 14  2  0
 14 15  1  0
 15 16  1  0
 16 17  1  0
 17 18  1  0
 18 19  1  0
 18 20  2  0
 18 21  2  0
  4 22  1  0
 22 23  1  0
 22 24  1  0
 24  2  2  0
 15  6  1  0
 13  9  2  0
A    1
 C1 
A    2
 C2 
A    3
 C3 
A    4
 C4 
A    5
 C5 
A    6
 C6 
A    7
 N1 
A    8
 C7 
A    9
 C8 
A   10
 C9 
A   11
 C10
A   12
 O1 
A   13
 C11
A   14
 N2 
A   15
 N3 
A   16
 C12
A   17
 C13
A   18
 S1 
A   19
 N4 
A   20
 O2 
A   21
 O3 
A   22
 N5 
A   23
 C14
A   24
 N6 
M  END
>  <similarity>  (23) 
1.0

>  <smiles>  (23) 
Cc1cc(Cc2nc(-c3ccoc3)nn2CCS(N)(=O)=O)n(C)n1

>  <cmpd_id>  (23) 
ENAMINE:PV-003059717470

>  <used_subnode>  (23) 
Cc1cc(C)n(C)n1

>  <used_synthon>  (23) 
NS(=O)(=O)CC[Xe]

>  <ref_subnode>  (23) 
Cc1cc(C)n(C)n1

>  <ref_synthon>  (23) 
CC([Xe])CS(N)(=O)=O

>  <fragmentA>  (23) 
x0310_0A

>  <fragmentB>  (23) 
x0719_1A

>  <HA>  (23) 
24

>  <HBD>  (23) 
1

>  <HBA>  (23) 
8

>  <MW>  (23) 
350.116109436

>  <TPSA>  (23) 
121.83

>  <LogP>  (23) 
0.4593199999999996

>  <RBs>  (23) 
6

>  <G_bound>  (23) 
-8.504937630729875

>  <G_unbound>  (23) 
1.8059647332194402

>  <deltaG>  (23) 
-10.310902363949316

>  <comRMSD>  (23) 
0.8695450151193839

>  <substructure_overlap_check>  (23) 
True

>  <sucos>  (23) 
0.5555521169455493

>  <interactions>  (23) 
Hydrophobic_GLU-85,HBDonor_GLU-85,Hydrophobic_PRO-107,Hydrophobic_VAL-124,HBAcceptor_GLY-127,Hydrophobic_GLU-88

>  <total_num_ints>  (23) 
6

>  <total_num_ints_nonhyd>  (23) 
2

>  <num_uniq_frag_ints>  (23) 
5

>  <num_repl_uniq_ints>  (23) 
3

>  <num_uniq_ints_lost>  (23) 
2

>  <num_new_uniq_ints>  (23) 
3

>  <int_check>  (23) 
True

>  <original SMILES>  (23) 
Cc1cc(Cc2nc(-c3ccoc3)nn2CCS(N)(=O)=O)n(C)n1

>  <original_name>  (23) 
x0310_0A-x0719_1A_4111_B1X

>  <ref_mols>  (23) 
Ax0310a,Ax0719a

>  <ref_pdb>  (23) 
Ax0310a

>  <rationale>  (23) 
FragNet: 1 round bioisosteric merging incl Cc1cc(C)n(C)n1 and NS(=O)(=O)CC[Xe] replacing CC([Xe])CS(N)(=O)=O

$$$$
x0365_0A-x0719_1A_52_B1X
     RDKit          3D

 23 24  0  0  0  0  0  0  0  0999 V2000
   10.0640    9.1100   22.9740 C   0  0  0  0  0  0  0  0  0  0  0  0
    9.1290    9.9150   23.7420 N   0  0  0  0  0  0  0  0  0  0  0  0
    9.0790   11.3450   23.6890 C   0  0  0  0  0  0  0  0  0  0  0  0
    8.0020   11.8400   24.5780 C   0  0  0  0  0  0  0  0  0  0  0  0
    7.8550   13.2770   24.5940 C   0  0  0  0  0  0  0  0  0  0  0  0
    7.2400   13.7910   23.3660 N   0  0  0  0  0  0  0  0  0  0  0  0
    7.8950   14.0090   22.1740 C   0  0  0  0  0  0  0  0  0  0  0  0
    7.3140   13.6760   21.2130 O   0  0  0  0  0  0  0  0  0  0  0  0
    9.1770   14.5510   22.2140 O   0  0  0  0  0  0  0  0  0  0  0  0
    9.9650   15.1920   21.0810 C   0  0  0  0  0  0  0  0  0  0  0  0
    9.2960   16.2150   20.3810 C   0  0  0  0  0  0  0  0  0  0  0  0
   10.4480   14.3120   20.0120 C   0  0  0  0  0  0  0  0  0  0  0  0
   11.2080   15.5710   21.6080 C   0  0  0  0  0  0  0  0  0  0  0  0
    7.4950   10.5660   25.1110 C   0  0  0  0  0  0  0  0  0  0  0  0
    6.4820   10.3600   25.9950 N   0  0  0  0  0  0  0  0  0  0  0  0
    5.8720   11.3890   26.8110 C   0  0  0  0  0  0  0  0  0  0  0  0
    6.0560   11.1070   28.2710 C   0  0  0  0  0  0  0  0  0  0  0  0
    6.6950   11.8490   29.2470 C   0  0  0  0  0  0  0  0  0  0  0  0
    6.5940   11.1390   30.4660 C   0  0  0  0  0  0  0  0  0  0  0  0
    5.8950    9.9820   30.2090 C   0  0  0  0  0  0  0  0  0  0  0  0
    5.5700    9.9710   28.8790 N   0  0  0  0  0  0  0  0  0  0  0  0
    4.8310    8.9150   28.2200 C   0  0  0  0  0  0  0  0  0  0  0  0
    8.1810    9.4790   24.5960 N   0  0  0  0  0  0  0  0  0  0  0  0
  1  2  1  0
  2  3  1  0
  3  4  2  0
  4  5  1  0
  5  6  1  0
  6  7  1  0
  7  8  2  0
  7  9  1  0
  9 10  1  0
 10 11  1  0
 10 12  1  0
 10 13  1  0
  4 14  1  0
 14 15  1  0
 15 16  1  0
 16 17  1  0
 17 18  2  0
 18 19  1  0
 19 20  2  0
 20 21  1  0
 21 22  1  0
 14 23  2  0
 23  2  1  0
 21 17  1  0
A    1
 C1 
A    2
 N1 
A    3
 C2 
A    4
 C3 
A    5
 C4 
A    6
 N2 
A    7
 C5 
A    8
 O1 
A    9
 O2 
A   10
 C6 
A   11
 C7 
A   12
 C8 
A   13
 C9 
A   14
 C10
A   15
 N3 
A   16
 C11
A   17
 C12
A   18
 C13
A   19
 C14
A   20
 C15
A   21
 N4 
A   22
 C16
A   23
 N5 
M  END
>  <similarity>  (24) 
1.0

>  <smiles>  (24) 
Cn1cc(CNC(=O)OC(C)(C)C)c(NCc2cccn2C)n1

>  <cmpd_id>  (24) 
ENAMINE:Z3392041538

>  <used_subnode>  (24) 
CNc1ccn(C)n1

>  <used_synthon>  (24) 
CC(C)(C)OC(=O)NC[Xe]

>  <ref_subnode>  (24) 
CNc1ccn(C)n1

>  <ref_synthon>  (24) 
CC([Xe])CS(N)(=O)=O

>  <fragmentA>  (24) 
x0365_0A

>  <fragmentB>  (24) 
x0719_1A

>  <HA>  (24) 
23

>  <HBD>  (24) 
2

>  <HBA>  (24) 
6

>  <MW>  (24) 
319.20082504000004

>  <TPSA>  (24) 
73.11000000000001

>  <LogP>  (24) 
2.3954000000000004

>  <RBs>  (24) 
5

>  <G_bound>  (24) 
-8.776179054881306

>  <G_unbound>  (24) 
0.5177161793211024

>  <deltaG>  (24) 
-9.293895234202408

>  <comRMSD>  (24) 
1.4957080096283677

>  <substructure_overlap_check>  (24) 
True

>  <sucos>  (24) 
0.5557771916708057

>  <interactions>  (24) 
Hydrophobic_TYR-90,Hydrophobic_PRO-107,Hydrophobic_THR-126,HBAcceptor_GLY-127,HBDonor_GLY-127,Hydrophobic_VAL-84,Hydrophobic_GLU-106,HBDonor_SER-105

>  <total_num_ints>  (24) 
8

>  <total_num_ints_nonhyd>  (24) 
3

>  <num_uniq_frag_ints>  (24) 
4

>  <num_repl_uniq_ints>  (24) 
4

>  <num_uniq_ints_lost>  (24) 
0

>  <num_new_uniq_ints>  (24) 
4

>  <int_check>  (24) 
True

>  <original SMILES>  (24) 
Cn1cc(CNC(=O)OC(C)(C)C)c(NCc2cccn2C)n1

>  <original_name>  (24) 
x0365_0A-x0719_1A_52_B1X

>  <ref_mols>  (24) 
Ax0365a,Ax0719a

>  <ref_pdb>  (24) 
Ax0310a

>  <rationale>  (24) 
FragNet: 1 round bioisosteric merging incl CNc1ccn(C)n1 and CC(C)(C)OC(=O)NC[Xe] replacing CC([Xe])CS(N)(=O)=O

$$$$
x0365_0A-x0528_0A_1224_B1X
     RDKit          3D

 24 26  0  0  0  0  0  0  0  0999 V2000
    9.4380   14.8290   21.3310 O   0  0  0  0  0  0  0  0  0  0  0  0
   10.4080   14.5940   22.0500 C   0  0  0  0  0  0  0  0  0  0  0  0
   11.6020   15.3670   22.0420 N   0  0  0  0  0  0  0  0  0  0  0  0
   12.4840   14.8390   22.8910 C   0  0  0  0  0  0  0  0  0  0  0  0
   12.0060   13.7470   23.6230 C   0  0  0  0  0  0  0  0  0  0  0  0
   10.6390   13.5860   23.0610 N   0  0  0  0  0  0  0  0  0  0  0  0
    9.6870   12.7710   23.6770 C   0  0  0  0  0  0  0  0  0  0  0  0
    9.6450   11.3400   23.4920 C   0  0  0  0  0  0  0  0  0  0  0  0
    8.6920   10.5970   24.1270 C   0  0  0  0  0  0  0  0  0  0  0  0
    7.6480   11.1970   25.0340 C   0  0  0  0  0  0  0  0  0  0  0  0
    6.6300   10.3220   25.6830 N   0  0  0  0  0  0  0  0  0  0  0  0
    5.6660   10.9660   26.5990 C   0  0  0  0  0  0  0  0  0  0  0  0
    6.2060   11.2170   28.0080 C   0  0  0  0  0  0  0  0  0  0  0  0
    6.2100   10.1110   29.0720 C   0  0  0  0  0  0  0  0  0  0  0  0
    6.7890   10.4840   30.4530 C   0  0  0  0  0  0  0  0  0  0  0  0
    7.2820   11.9070   30.5810 C   0  0  0  0  0  0  0  0  0  0  0  0
    7.8190   12.0970   32.0100 C   0  0  0  0  0  0  0  0  0  0  0  0
    7.2160   11.2910   32.9290 F   0  0  0  0  0  0  0  0  0  0  0  0
    9.1550   11.8430   32.1180 F   0  0  0  0  0  0  0  0  0  0  0  0
    7.6490   13.3700   32.4660 F   0  0  0  0  0  0  0  0  0  0  0  0
    7.2610   12.8880   29.5950 C   0  0  0  0  0  0  0  0  0  0  0  0
    6.7560   12.6080   28.3470 C   0  0  0  0  0  0  0  0  0  0  0  0
    7.7240   12.5750   25.1830 C   0  0  0  0  0  0  0  0  0  0  0  0
    8.7080   13.3380   24.5290 C   0  0  0  0  0  0  0  0  0  0  0  0
  1  2  2  0
  2  3  1  0
  3  4  1  0
  4  5  1  0
  5  6  1  0
  6  7  1  0
  7  8  2  0
  8  9  1  0
  9 10  2  0
 10 11  1  0
 11 12  1  0
 12 13  1  0
 13 14  2  0
 14 15  1  0
 15 16  2  0
 16 17  1  0
 17 18  1  0
 17 19  1  0
 17 20  1  0
 16 21  1  0
 21 22  2  0
 10 23  1  0
 23 24  2  0
  6  2  1  0
 24  7  1  0
 22 13  1  0
A    1
 O1 
A    2
 C1 
A    3
 N1 
A    4
 C2 
A    5
 C3 
A    6
 N2 
A    7
 C4 
A    8
 C5 
A    9
 C6 
A   10
 C7 
A   11
 N3 
A   12
 C8 
A   13
 C9 
A   14
 C10
A   15
 C11
A   16
 C12
A   17
 C13
A   18
 F1 
A   19
 F2 
A   20
 F3 
A   21
 C14
A   22
 C15
A   23
 C16
A   24
 C17
M  END
>  <similarity>  (25) 
1.0

>  <smiles>  (25) 
O=C1NCCN1c1ccc(NCc2ccc(C(F)(F)F)cc2)cc1

>  <cmpd_id>  (25) 
ENAMINE:PV-001923657878

>  <used_subnode>  (25) 
NCc1ccccc1

>  <used_synthon>  (25) 
O=C1NCCN1[Xe]

>  <ref_subnode>  (25) 
NCc1ccccc1

>  <ref_synthon>  (25) 
O=C1NCCC1[Xe]

>  <fragmentA>  (25) 
x0365_0A

>  <fragmentB>  (25) 
x0528_0A

>  <HA>  (25) 
24

>  <HBD>  (25) 
2

>  <HBA>  (25) 
2

>  <MW>  (25) 
335.124546792

>  <TPSA>  (25) 
44.370000000000005

>  <LogP>  (25) 
3.847100000000003

>  <RBs>  (25) 
4

>  <G_bound>  (25) 
-7.293744578411969

>  <G_unbound>  (25) 
0.3687553458135277

>  <deltaG>  (25) 
-7.6624999242254965

>  <comRMSD>  (25) 
0.5841247726752145

>  <substructure_overlap_check>  (25) 
True

>  <sucos>  (25) 
0.555856538963937

>  <interactions>  (25) 
Hydrophobic_PRO-107,Hydrophobic_GLU-106,HBDonor_SER-105,HBDonor_SER-87

>  <total_num_ints>  (25) 
4

>  <total_num_ints_nonhyd>  (25) 
2

>  <num_uniq_frag_ints>  (25) 
5

>  <num_repl_uniq_ints>  (25) 
3

>  <num_uniq_ints_lost>  (25) 
2

>  <num_new_uniq_ints>  (25) 
1

>  <int_check>  (25) 
True

>  <original SMILES>  (25) 
O=C1NCCN1c1ccc(NCc2ccc(C(F)(F)F)cc2)cc1

>  <original_name>  (25) 
x0365_0A-x0528_0A_1224_B1X

>  <ref_mols>  (25) 
Ax0365a,Ax0528a

>  <ref_pdb>  (25) 
Ax0310a

>  <rationale>  (25) 
FragNet: 1 round bioisosteric merging incl NCc1ccccc1 and O=C1NCCN1[Xe] replacing O=C1NCCC1[Xe]

$$$$
x0365_0A-x0310_0A_1992_B1X
     RDKit          3D

 18 19  0  0  0  0  0  0  0  0999 V2000
    7.1140    8.6400   33.1270 C   0  0  0  0  0  0  0  0  0  0  0  0
    7.5290    9.6380   32.0630 C   0  0  0  0  0  0  0  0  0  0  0  0
    6.4180    9.8370   31.1880 O   0  0  0  0  0  0  0  0  0  0  0  0
    6.5320   10.7090   30.1360 C   0  0  0  0  0  0  0  0  0  0  0  0
    6.1130   10.4310   28.8220 C   0  0  0  0  0  0  0  0  0  0  0  0
    6.2630   11.3850   27.8020 C   0  0  0  0  0  0  0  0  0  0  0  0
    5.8610   11.1190   26.4870 C   0  0  0  0  0  0  0  0  0  0  0  0
    6.7580   10.1540   25.8740 N   0  0  0  0  0  0  0  0  0  0  0  0
    7.7530   10.4170   24.9710 C   0  0  0  0  0  0  0  0  0  0  0  0
    8.4390    9.5190   24.2810 N   0  0  0  0  0  0  0  0  0  0  0  0
    9.3160   10.2360   23.5250 C   0  0  0  0  0  0  0  0  0  0  0  0
    9.1400   11.5700   23.7680 C   0  0  0  0  0  0  0  0  0  0  0  0
    8.1380   11.7070   24.6960 O   0  0  0  0  0  0  0  0  0  0  0  0
    6.8320   12.6210   28.1100 C   0  0  0  0  0  0  0  0  0  0  0  0
    7.2530   12.9060   29.4070 C   0  0  0  0  0  0  0  0  0  0  0  0
    7.1120   11.9640   30.4230 C   0  0  0  0  0  0  0  0  0  0  0  0
    7.5140   12.1840   31.7130 O   0  0  0  0  0  0  0  0  0  0  0  0
    8.9150   12.2920   31.9260 C   0  0  0  0  0  0  0  0  0  0  0  0
  1  2  1  0
  2  3  1  0
  3  4  1  0
  4  5  2  0
  5  6  1  0
  6  7  1  0
  7  8  1  0
  8  9  1  0
  9 10  2  0
 10 11  1  0
 11 12  2  0
 12 13  1  0
  6 14  2  0
 14 15  1  0
 15 16  2  0
 16 17  1  0
 17 18  1  0
 16  4  1  0
 13  9  1  0
A    1
 C1 
A    2
 C2 
A    3
 O1 
A    4
 C3 
A    5
 C4 
A    6
 C5 
A    7
 C6 
A    8
 N1 
A    9
 C7 
A   10
 N2 
A   11
 C8 
A   12
 C9 
A   13
 O2 
A   14
 C10
A   15
 C11
A   16
 C12
A   17
 O3 
A   18
 C13
M  END
>  <similarity>  (26) 
1.0

>  <smiles>  (26) 
CCOc1cc(CNc2ncco2)ccc1OC

>  <cmpd_id>  (26) 
ENAMINE:Z1695659868

>  <used_subnode>  (26) 
NCc1ccccc1

>  <used_synthon>  (26) 
[Xe]c1ncco1

>  <ref_subnode>  (26) 
NCc1ccccc1

>  <ref_synthon>  (26) 
[Xe]n1cccn1

>  <fragmentA>  (26) 
x0365_0A

>  <fragmentB>  (26) 
x0310_0A

>  <HA>  (26) 
18

>  <HBD>  (26) 
1

>  <HBA>  (26) 
5

>  <MW>  (26) 
248.116092372

>  <TPSA>  (26) 
56.519999999999996

>  <LogP>  (26) 
2.694000000000001

>  <RBs>  (26) 
6

>  <G_bound>  (26) 
-5.4906543737230304

>  <G_unbound>  (26) 
0.15395323779096606

>  <deltaG>  (26) 
-5.6446076115139965

>  <comRMSD>  (26) 
0.40436515487373925

>  <substructure_overlap_check>  (26) 
True

>  <sucos>  (26) 
0.5558892129570565

>  <interactions>  (26) 
Hydrophobic_PRO-107,Hydrophobic_GLU-106,HBAcceptor_SER-105,HBDonor_SER-105

>  <total_num_ints>  (26) 
4

>  <total_num_ints_nonhyd>  (26) 
2

>  <num_uniq_frag_ints>  (26) 
6

>  <num_repl_uniq_ints>  (26) 
3

>  <num_uniq_ints_lost>  (26) 
3

>  <num_new_uniq_ints>  (26) 
1

>  <int_check>  (26) 
True

>  <original SMILES>  (26) 
CCOc1cc(CNc2ncco2)ccc1OC

>  <original_name>  (26) 
x0365_0A-x0310_0A_1992_B1X

>  <ref_mols>  (26) 
Ax0365a,Ax0310a

>  <ref_pdb>  (26) 
Ax0310a

>  <rationale>  (26) 
FragNet: 1 round bioisosteric merging incl NCc1ccccc1 and [Xe]c1ncco1 replacing [Xe]n1cccn1

$$$$
x0310_0A-x0556_0A_229-5_B2S
     RDKit          3D

 14 14  0  0  0  0  0  0  0  0999 V2000
   12.7400   12.1270   22.7850 C   0  0  0  0  0  0  0  0  0  0  0  0
   11.9640   13.4270   22.7050 C   0  0  2  0  0  0  0  0  0  0  0  0
   12.7250   14.6330   23.2250 C   0  0  0  0  0  0  0  0  0  0  0  0
   12.2380   15.8160   22.5570 C   0  0  0  0  0  0  0  0  0  0  0  0
   11.8740   16.7380   21.9960 N   0  0  0  0  0  0  0  0  0  0  0  0
   10.7290   13.2550   23.5350 C   0  0  0  0  0  0  0  0  0  0  0  0
   10.5230   13.9310   24.5320 O   0  0  0  0  0  0  0  0  0  0  0  0
    9.9230   12.2710   23.0490 N   0  0  0  0  0  0  0  0  0  0  0  0
    8.9710   11.6340   23.8450 C   0  0  0  0  0  0  0  0  0  0  0  0
    8.0250   12.3360   24.5780 C   0  0  0  0  0  0  0  0  0  0  0  0
    7.1140   11.6600   25.3660 C   0  0  0  0  0  0  0  0  0  0  0  0
    7.1830   10.2940   25.3900 C   0  0  0  0  0  0  0  0  0  0  0  0
    8.0860    9.5680   24.6860 N   0  0  0  0  0  0  0  0  0  0  0  0
    8.9580   10.2550   23.9340 C   0  0  0  0  0  0  0  0  0  0  0  0
  2  1  1  1
  2  3  1  0
  3  4  1  0
  4  5  3  0
  2  6  1  0
  6  7  2  0
  6  8  1  0
  8  9  1  0
  9 10  2  0
 10 11  1  0
 11 12  2  0
 12 13  1  0
 13 14  2  0
 14  9  1  0
A    1
 C1 
A    2
 C2 
A    3
 C3 
A    4
 C4 
A    5
 N1 
A    6
 C5 
A    7
 O1 
A    8
 N2 
A    9
 C6 
A   10
 C7 
A   11
 C8 
A   12
 C9 
A   13
 N3 
A   14
 C10
M  END
>  <similarity>  (27) 
1.0

>  <smiles>  (27) 
CC(CC#N)C(=O)Nc1cccnc1

>  <cmpd_id>  (27) 
ENAMINE:Z2617773232

>  <used_subnode>  (27) 
N#CCC(=O)N[Xe]

>  <used_synthon>  (27) 
[Xe]c1cccnc1

>  <ref_subnode>  (27) 
N#CCC(=O)N[Xe]

>  <ref_synthon>  (27) 
[Xe]n1cccn1

>  <fragmentA>  (27) 
x0310_0A

>  <fragmentB>  (27) 
x0556_0A

>  <rev_synthon>  (27) 
CC(CC#N)C(=O)N[Xe]

>  <intermed_node1>  (27) 
c1ccncc1

>  <HA>  (27) 
14

>  <HBD>  (27) 
1

>  <HBA>  (27) 
3

>  <MW>  (27) 
189.090211972

>  <TPSA>  (27) 
65.78

>  <LogP>  (27) 
1.5698799999999997

>  <RBs>  (27) 
3

>  <G_bound>  (27) 
-5.668891848701258

>  <G_unbound>  (27) 
0.138192981770615

>  <deltaG>  (27) 
-5.807084830471873

>  <comRMSD>  (27) 
0.5167636583475387

>  <substructure_overlap_check>  (27) 
True

>  <sucos>  (27) 
0.5560239842144593

>  <interactions>  (27) 
Hydrophobic_PRO-107,HBDonor_SER-125,HBAcceptor_SER-105,Hydrophobic_CYS-110,Hydrophobic_TYR-89,Hydrophobic_HIS-21

>  <total_num_ints>  (27) 
6

>  <total_num_ints_nonhyd>  (27) 
2

>  <num_uniq_frag_ints>  (27) 
8

>  <num_repl_uniq_ints>  (27) 
4

>  <num_uniq_ints_lost>  (27) 
4

>  <num_new_uniq_ints>  (27) 
2

>  <int_check>  (27) 
True

>  <original SMILES>  (27) 
CC(CC#N)C(=O)Nc1cccnc1

>  <original_name>  (27) 
x0310_0A-x0556_0A_229-5_B2S

>  <ref_mols>  (27) 
Ax0310a,Ax0556a

>  <ref_pdb>  (27) 
Ax0310a

>  <rationale>  (27) 
FragNet: 2 rounds bioisosteric merging (no change in linker) incl CC(CC#N)C(=O)N[Xe] replacing N#CCC(=O)N[Xe] and [Xe]c1cccnc1 replacing [Xe]n1cccn1

$$$$
x0365_0A-x0310_0A_1648_B1X_rgrp-0
     RDKit          3D

 14 15  0  0  0  0  0  0  0  0999 V2000
   10.0630   12.7460   23.2490 C   0  0  0  0  0  0  0  0  0  0  0  0
    9.2980   11.5470   23.7850 C   0  0  0  0  0  0  0  0  0  0  0  0
    9.4490   10.2140   23.4600 C   0  0  0  0  0  0  0  0  0  0  0  0
    8.5550    9.5430   24.1920 N   0  0  0  0  0  0  0  0  0  0  0  0
    7.8260   10.4260   24.9890 C   0  0  0  0  0  0  0  0  0  0  0  0
    6.8350   10.2440   25.8830 N   0  0  0  0  0  0  0  0  0  0  0  0
    6.0090   11.3250   26.3810 C   0  0  0  0  0  0  0  0  0  0  0  0
    6.3060   11.4560   27.7110 C   0  0  0  0  0  0  0  0  0  0  0  0
    6.1530   10.2730   28.6590 C   0  0  0  0  0  0  0  0  0  0  0  0
    6.5020   10.4190   30.1530 C   0  0  0  0  0  0  0  0  0  0  0  0
    6.9820   11.8030   30.5320 C   0  0  0  0  0  0  0  0  0  0  0  0
    7.0800   12.8180   29.5740 C   0  0  0  0  0  0  0  0  0  0  0  0
    6.7630   12.6760   28.2230 C   0  0  0  0  0  0  0  0  0  0  0  0
    8.2860   11.7040   24.7440 O   0  0  0  0  0  0  0  0  0  0  0  0
  1  2  1  0
  2  3  2  0
  3  4  1  0
  4  5  2  0
  5  6  1  0
  6  7  1  0
  7  8  1  0
  8  9  2  0
  9 10  1  0
 10 11  2  0
 11 12  1  0
 12 13  2  0
  5 14  1  0
 14  2  1  0
 13  8  1  0
A    1
 C1 
A    2
 C2 
A    3
 C3 
A    4
 N1 
A    5
 C4 
A    6
 N2 
A    7
 C5 
A    8
 C6 
A    9
 C7 
A   10
 C8 
A   11
 C9 
A   12
 C10
A   13
 C11
A   14
 O1 
M  END
>  <similarity>  (28) 
1.0

>  <smiles>  (28) 
Cc1cnc(NCc2ccccc2)o1

>  <cmpd_id>  (28) 
CHEMSPACE-BB:CSMB00016065539,ENAMINE:Z2040144939

>  <used_subnode>  (28) 
NCc1ccccc1

>  <used_synthon>  (28) 
[Xe]c1ncco1

>  <ref_subnode>  (28) 
NCc1ccccc1

>  <ref_synthon>  (28) 
[Xe]n1cccn1

>  <fragmentA>  (28) 
x0365_0A

>  <fragmentB>  (28) 
x0310_0A

>  <HA>  (28) 
14

>  <HBD>  (28) 
1

>  <HBA>  (28) 
3

>  <MW>  (28) 
188.094963004

>  <TPSA>  (28) 
38.06

>  <LogP>  (28) 
2.5951200000000005

>  <RBs>  (28) 
3

>  <G_bound>  (28) 
-6.492598729295814

>  <G_unbound>  (28) 
0.31132151350957715

>  <deltaG>  (28) 
-6.8039202428053915

>  <comRMSD>  (28) 
0.1322331067222901

>  <substructure_overlap_check>  (28) 
True

>  <sucos>  (28) 
0.5567287884661758

>  <interactions>  (28) 
Hydrophobic_GLU-106,Hydrophobic_PRO-107,HBAcceptor_SER-105,HBDonor_SER-105

>  <total_num_ints>  (28) 
4

>  <total_num_ints_nonhyd>  (28) 
2

>  <num_uniq_frag_ints>  (28) 
6

>  <num_repl_uniq_ints>  (28) 
3

>  <num_uniq_ints_lost>  (28) 
3

>  <num_new_uniq_ints>  (28) 
1

>  <int_check>  (28) 
True

>  <original SMILES>  (28) 
Cc1cnc(NCc2ccccc2)o1

>  <original_name>  (28) 
x0365_0A-x0310_0A_1648_B1X_rgrp-0

>  <ref_mols>  (28) 
Ax0365a,Ax0310a

>  <ref_pdb>  (28) 
Ax0310a

>  <rationale>  (28) 
FragNet: 1 round bioisosteric merging incl NCc1ccccc1 and [Xe]c1ncco1 replacing [Xe]n1cccn1

$$$$
x0556_0A-x0310_0A_1620_PXX
     RDKit          3D

 21 23  0  0  0  0  0  0  0  0999 V2000
   11.3170   14.2220   24.3150 C   0  0  0  0  0  0  0  0  0  0  0  0
   11.5700   13.0230   23.4190 C   0  0  0  0  0  0  0  0  0  0  0  0
   10.3170   12.4980   22.8510 N   0  0  0  0  0  0  0  0  0  0  0  0
    9.3280   11.9140   23.6740 C   0  0  0  0  0  0  0  0  0  0  0  0
    9.0790   10.5510   23.8820 C   0  0  0  0  0  0  0  0  0  0  0  0
    7.9140   10.1760   24.8390 C   0  0  0  0  0  0  0  0  0  0  0  0
    7.1750   11.2040   25.4390 C   0  0  0  0  0  0  0  0  0  0  0  0
    6.0310   11.0070   26.3640 C   0  0  0  0  0  0  0  0  0  0  0  0
    5.3010   11.9730   26.5520 O   0  0  0  0  0  0  0  0  0  0  0  0
    5.7810    9.7870   26.9970 N   0  0  0  0  0  0  0  0  0  0  0  0
    4.7860    9.6250   28.1130 C   0  0  2  0  0  0  0  0  0  0  0  0
    4.9790    8.3470   28.9640 C   0  0  0  0  0  0  0  0  0  0  0  0
    3.4660    8.0800   28.9590 C   0  0  1  0  0  0  0  0  0  0  0  0
    2.7820    8.5620   30.1810 N   0  0  0  0  0  0  0  0  0  0  0  0
    1.6190    9.2870   30.1470 C   0  0  0  0  0  0  0  0  0  0  0  0
    1.2960    9.5430   31.4570 C   0  0  0  0  0  0  0  0  0  0  0  0
    2.3200    8.9350   32.2030 C   0  0  0  0  0  0  0  0  0  0  0  0
    3.2280    8.3370   31.4280 N   0  0  0  0  0  0  0  0  0  0  0  0
    3.4080    9.0060   27.7390 C   0  0  0  0  0  0  0  0  0  0  0  0
    7.5630   12.4930   25.1200 C   0  0  0  0  0  0  0  0  0  0  0  0
    8.5810   12.8440   24.2860 N   0  0  0  0  0  0  0  0  0  0  0  0
  1  2  1  0
  2  3  1  0
  3  4  1  0
  4  5  2  0
  5  6  1  0
  6  7  2  0
  7  8  1  0
  8  9  2  0
  8 10  1  0
 11 10  1  6
 11 12  1  0
 12 13  1  0
 13 14  1  1
 14 15  1  0
 15 16  2  0
 16 17  1  0
 17 18  2  0
 13 19  1  0
  7 20  1  0
 20 21  2  0
 21  4  1  0
 19 11  1  0
 18 14  1  0
A    1
 C1 
A    2
 C2 
A    3
 N1 
A    4
 C3 
A    5
 C4 
A    6
 C5 
A    7
 C6 
A    8
 C7 
A    9
 O1 
A   10
 N2 
A   11
 C8 
A   12
 C9 
A   13
 C10
A   14
 N3 
A   15
 C11
A   16
 C12
A   17
 C13
A   18
 N4 
A   19
 C14
A   20
 C15
A   21
 N5 
M  END
>  <similarity>  (29) 
NA

>  <smiles>  (29) 
CCNc1ccc(C(=O)NC2CC(n3cccn3)C2)cn1

>  <cmpd_id>  (29) 
ENAMINE:Z3486300189

>  <used_subnode>  (29) 
NA

>  <used_synthon>  (29) 
NA

>  <ref_subnode>  (29) 
O=CNC1CCC1

>  <ref_synthon>  (29) 
[Xe]n1cccn1

>  <fragmentA>  (29) 
x0556_0A

>  <fragmentB>  (29) 
x0310_0A

>  <HA>  (29) 
21

>  <HBD>  (29) 
2

>  <HBA>  (29) 
5

>  <MW>  (29) 
285.158960228

>  <TPSA>  (29) 
71.84

>  <LogP>  (29) 
1.8434

>  <RBs>  (29) 
5

>  <G_bound>  (29) 
-6.736508608493689

>  <G_unbound>  (29) 
0.6207179245936765

>  <deltaG>  (29) 
-7.357226533087365

>  <comRMSD>  (29) 
0.6181002962312894

>  <substructure_overlap_check>  (29) 
True

>  <sucos>  (29) 
0.5570893375214646

>  <interactions>  (29) 
Hydrophobic_PRO-107,Hydrophobic_HIS-104,Hydrophobic_GLU-106,HBDonor_SER-125,HBDonor_SER-105

>  <total_num_ints>  (29) 
5

>  <total_num_ints_nonhyd>  (29) 
2

>  <num_uniq_frag_ints>  (29) 
8

>  <num_repl_uniq_ints>  (29) 
5

>  <num_uniq_ints_lost>  (29) 
3

>  <num_new_uniq_ints>  (29) 
0

>  <int_check>  (29) 
True

>  <original SMILES>  (29) 
CCNc1ccc(C(=O)NC2CC(n3cccn3)C2)cn1

>  <original_name>  (29) 
x0556_0A-x0310_0A_1620_PXX

>  <ref_mols>  (29) 
Ax0556a,Ax0310a

>  <ref_pdb>  (29) 
Ax0310a

>  <rationale>  (29) 
FragNet: perfect merge incl O=CNC1CCC1,[Xe]n1cccn1

$$$$
x0556_0A-x0310_0A_3227_B1X
     RDKit          3D

 20 22  0  0  0  0  0  0  0  0999 V2000
    1.7990    8.1250   26.8320 O   0  0  0  0  0  0  0  0  0  0  0  0
    1.7860    7.5110   27.8990 C   0  0  0  0  0  0  0  0  0  0  0  0
    2.2870    7.9960   29.0970 N   0  0  0  0  0  0  0  0  0  0  0  0
    3.4900    8.7900   29.2740 C   0  0  2  0  0  0  0  0  0  0  0  0
    3.5920    9.8720   28.2550 C   0  0  0  0  0  0  0  0  0  0  0  0
    4.7000    9.3180   27.3640 C   0  0  1  0  0  0  0  0  0  0  0  0
    5.9500    9.7990   26.9690 N   0  0  0  0  0  0  0  0  0  0  0  0
    6.2520   10.9290   26.1970 C   0  0  0  0  0  0  0  0  0  0  0  0
    5.5390   12.1000   26.3280 O   0  0  0  0  0  0  0  0  0  0  0  0
    7.3480   10.7920   25.2570 C   0  0  0  0  0  0  0  0  0  0  0  0
    7.9200   11.9550   24.6750 C   0  0  0  0  0  0  0  0  0  0  0  0
    9.0370   11.7180   23.7180 C   0  0  0  0  0  0  0  0  0  0  0  0
    9.1870   10.0140   23.7110 S   0  0  0  0  0  0  0  0  0  0  0  0
    7.9670    9.6800   24.8030 N   0  0  0  0  0  0  0  0  0  0  0  0
    4.8350    8.3350   28.6100 C   0  0  0  0  0  0  0  0  0  0  0  0
    1.2030    6.1560   28.0080 C   0  0  0  0  0  0  0  0  0  0  0  0
   -0.0970    5.7930   27.8090 C   0  0  0  0  0  0  0  0  0  0  0  0
   -0.2090    4.4360   28.0150 C   0  0  0  0  0  0  0  0  0  0  0  0
    1.0820    4.0640   28.3360 N   0  0  0  0  0  0  0  0  0  0  0  0
    1.9830    5.0950   28.3420 N   0  0  0  0  0  0  0  0  0  0  0  0
  1  2  2  0
  2  3  1  0
  4  3  1  6
  4  5  1  0
  5  6  1  0
  6  7  1  1
  7  8  1  0
  8  9  2  0
  8 10  1  0
 10 11  1  0
 11 12  2  0
 12 13  1  0
 13 14  1  0
  6 15  1  0
  2 16  1  0
 16 17  1  0
 17 18  2  0
 18 19  1  0
 19 20  1  0
 15  4  1  0
 20 16  2  0
 14 10  2  0
A    1
 O1 
A    2
 C1 
A    3
 N1 
A    4
 C2 
A    5
 C3 
A    6
 C4 
A    7
 N2 
A    8
 C5 
A    9
 O2 
A   10
 C6 
A   11
 C7 
A   12
 C8 
A   13
 S1 
A   14
 N3 
A   15
 C9 
A   16
 C10
A   17
 C11
A   18
 C12
A   19
 N4 
A   20
 N5 
M  END
>  <similarity>  (30) 
1.0

>  <smiles>  (30) 
O=C(NC1CC(NC(=O)c2ccsn2)C1)c1cc[nH]n1

>  <cmpd_id>  (30) 
ENAMINE:PV-000440916111,ENAMINE:PV-000445091225,ENAMINE:PV-000439472088

>  <used_subnode>  (30) 
O=CNC1CCC1

>  <used_synthon>  (30) 
[Xe]c1ccsn1

>  <ref_subnode>  (30) 
O=CNC1CCC1

>  <ref_synthon>  (30) 
[Xe]n1cccn1

>  <fragmentA>  (30) 
x0556_0A

>  <fragmentB>  (30) 
x0310_0A

>  <HA>  (30) 
20

>  <HBD>  (30) 
3

>  <HBA>  (30) 
5

>  <MW>  (30) 
291.0789956560001

>  <TPSA>  (30) 
99.77

>  <LogP>  (30) 
0.5570000000000003

>  <RBs>  (30) 
4

>  <G_bound>  (30) 
-4.219771732380318

>  <G_unbound>  (30) 
0.7166484633408473

>  <deltaG>  (30) 
-4.9364201957211655

>  <comRMSD>  (30) 
1.409219592942636

>  <substructure_overlap_check>  (30) 
True

>  <sucos>  (30) 
0.5571033326351946

>  <interactions>  (30) 
HBAcceptor_GLY-130,Hydrophobic_PRO-107,Hydrophobic_GLU-106,HBDonor_SER-105,Hydrophobic_HIS-104

>  <total_num_ints>  (30) 
5

>  <total_num_ints_nonhyd>  (30) 
2

>  <num_uniq_frag_ints>  (30) 
8

>  <num_repl_uniq_ints>  (30) 
4

>  <num_uniq_ints_lost>  (30) 
4

>  <num_new_uniq_ints>  (30) 
1

>  <int_check>  (30) 
True

>  <original SMILES>  (30) 
O=C(NC1CC(NC(=O)c2ccsn2)C1)c1cc[nH]n1

>  <original_name>  (30) 
x0556_0A-x0310_0A_3227_B1X

>  <ref_mols>  (30) 
Ax0556a,Ax0310a

>  <ref_pdb>  (30) 
Ax0310a

>  <rationale>  (30) 
FragNet: 1 round bioisosteric merging incl O=CNC1CCC1 and [Xe]c1ccsn1 replacing [Xe]n1cccn1

$$$$
x0556_0A-x0310_0A_1751_PXX
     RDKit          3D

 21 23  0  0  0  0  0  0  0  0999 V2000
    5.8200   14.7960   23.2880 C   0  0  0  0  0  0  0  0  0  0  0  0
    7.0020   14.6870   24.2720 C   0  0  0  0  0  0  0  0  0  0  0  0
    6.8420   13.5040   25.0990 N   0  0  0  0  0  0  0  0  0  0  0  0
    7.5140   12.3130   24.7790 C   0  0  0  0  0  0  0  0  0  0  0  0
    8.6940   12.2890   23.7700 C   0  0  0  0  0  0  0  0  0  0  0  0
    9.3320   10.9460   23.5010 C   0  0  0  0  0  0  0  0  0  0  0  0
    8.8020    9.8210   24.1920 C   0  0  0  0  0  0  0  0  0  0  0  0
    7.7410    9.8770   25.1010 N   0  0  0  0  0  0  0  0  0  0  0  0
    7.1430   11.0810   25.3610 C   0  0  0  0  0  0  0  0  0  0  0  0
    6.0620   11.0500   26.2940 C   0  0  0  0  0  0  0  0  0  0  0  0
    5.3540   12.0350   26.4750 O   0  0  0  0  0  0  0  0  0  0  0  0
    5.8430    9.9010   26.9690 N   0  0  0  0  0  0  0  0  0  0  0  0
    4.8650    9.8050   28.0820 C   0  0  2  0  0  0  0  0  0  0  0  0
    5.0060    8.7190   28.9180 C   0  0  0  0  0  0  0  0  0  0  0  0
    3.7440    8.1890   29.0750 C   0  0  2  0  0  0  0  0  0  0  0  0
    3.5960    6.7460   28.8470 N   0  0  0  0  0  0  0  0  0  0  0  0
    4.5100    5.8100   29.2450 C   0  0  0  0  0  0  0  0  0  0  0  0
    4.0030    4.6000   28.8540 C   0  0  0  0  0  0  0  0  0  0  0  0
    2.7820    4.9160   28.2270 C   0  0  0  0  0  0  0  0  0  0  0  0
    2.5320    6.2220   28.2220 N   0  0  0  0  0  0  0  0  0  0  0  0
    3.5110    9.0500   27.7990 C   0  0  0  0  0  0  0  0  0  0  0  0
  1  2  1  0
  2  3  1  0
  3  4  1  0
  4  5  2  0
  5  6  1  0
  6  7  2  0
  7  8  1  0
  8  9  2  0
  9 10  1  0
 10 11  2  0
 10 12  1  0
 13 12  1  6
 13 14  1  0
 14 15  1  0
 15 16  1  6
 16 17  1  0
 17 18  2  0
 18 19  1  0
 19 20  2  0
 15 21  1  0
  9  4  1  0
 21 13  1  0
 20 16  1  0
A    1
 C1 
A    2
 C2 
A    3
 N1 
A    4
 C3 
A    5
 C4 
A    6
 C5 
A    7
 C6 
A    8
 N2 
A    9
 C7 
A   10
 C8 
A   11
 O1 
A   12
 N3 
A   13
 C9 
A   14
 C10
A   15
 C11
A   16
 N4 
A   17
 C12
A   18
 C13
A   19
 C14
A   20
 N5 
A   21
 C15
M  END
>  <similarity>  (31) 
NA

>  <smiles>  (31) 
CCNc1cccnc1C(=O)NC1CC(n2cccn2)C1

>  <cmpd_id>  (31) 
ENAMINE:Z3486300661

>  <used_subnode>  (31) 
NA

>  <used_synthon>  (31) 
NA

>  <ref_subnode>  (31) 
O=CNC1CCC1

>  <ref_synthon>  (31) 
[Xe]n1cccn1

>  <fragmentA>  (31) 
x0556_0A

>  <fragmentB>  (31) 
x0310_0A

>  <HA>  (31) 
21

>  <HBD>  (31) 
2

>  <HBA>  (31) 
5

>  <MW>  (31) 
285.158960228

>  <TPSA>  (31) 
71.84

>  <LogP>  (31) 
1.8434

>  <RBs>  (31) 
5

>  <G_bound>  (31) 
-5.967366360190315

>  <G_unbound>  (31) 
0.975967496498399

>  <deltaG>  (31) 
-6.943333856688714

>  <comRMSD>  (31) 
0.672574424132317

>  <substructure_overlap_check>  (31) 
True

>  <sucos>  (31) 
0.5578283475574218

>  <interactions>  (31) 
Hydrophobic_PRO-107,Hydrophobic_GLU-85,Hydrophobic_VAL-84,Hydrophobic_HIS-104,PiStacking_HIS-104,Hydrophobic_GLU-106,HBDonor_SER-105

>  <total_num_ints>  (31) 
7

>  <total_num_ints_nonhyd>  (31) 
2

>  <num_uniq_frag_ints>  (31) 
8

>  <num_repl_uniq_ints>  (31) 
4

>  <num_uniq_ints_lost>  (31) 
4

>  <num_new_uniq_ints>  (31) 
3

>  <int_check>  (31) 
True

>  <original SMILES>  (31) 
CCNc1cccnc1C(=O)NC1CC(n2cccn2)C1

>  <original_name>  (31) 
x0556_0A-x0310_0A_1751_PXX

>  <ref_mols>  (31) 
Ax0556a,Ax0310a

>  <ref_pdb>  (31) 
Ax0310a

>  <rationale>  (31) 
FragNet: perfect merge incl O=CNC1CCC1,[Xe]n1cccn1

$$$$
x0556_0A-x0310_0A_1844_PXX
     RDKit          3D

 24 27  0  0  0  0  0  0  0  0999 V2000
    5.0810   11.8860   26.3510 O   0  0  0  0  0  0  0  0  0  0  0  0
    5.9390   11.0210   26.2650 C   0  0  0  0  0  0  0  0  0  0  0  0
    5.7870    9.8270   26.9660 N   0  0  0  0  0  0  0  0  0  0  0  0
    4.7940    9.7090   28.0680 C   0  0  2  0  0  0  0  0  0  0  0  0
    5.0660    8.5150   29.0030 C   0  0  0  0  0  0  0  0  0  0  0  0
    3.5580    8.2230   29.0580 C   0  0  2  0  0  0  0  0  0  0  0  0
    3.2570    6.7920   28.9350 N   0  0  0  0  0  0  0  0  0  0  0  0
    4.2330    5.8420   28.8410 C   0  0  0  0  0  0  0  0  0  0  0  0
    3.5790    4.6480   28.7440 C   0  0  0  0  0  0  0  0  0  0  0  0
    2.2130    4.9730   28.7870 C   0  0  0  0  0  0  0  0  0  0  0  0
    2.0100    6.2860   28.9050 N   0  0  0  0  0  0  0  0  0  0  0  0
    3.4620    8.9800   27.7280 C   0  0  0  0  0  0  0  0  0  0  0  0
    7.1590   11.3100   25.4080 C   0  0  0  0  0  0  0  0  0  0  0  0
    7.3930   12.6660   25.2740 C   0  0  0  0  0  0  0  0  0  0  0  0
    8.4740   13.1370   24.5510 C   0  0  0  0  0  0  0  0  0  0  0  0
    9.4020   12.2610   23.9110 C   0  0  0  0  0  0  0  0  0  0  0  0
   10.5450   12.8120   23.2300 C   0  0  0  0  0  0  0  0  0  0  0  0
   10.4390   13.5100   22.0510 N   0  0  0  0  0  0  0  0  0  0  0  0
   11.6740   13.8830   21.7190 N   0  0  0  0  0  0  0  0  0  0  0  0
   12.4520   13.3990   22.6950 N   0  0  0  0  0  0  0  0  0  0  0  0
   11.8120   12.7330   23.6650 N   0  0  0  0  0  0  0  0  0  0  0  0
    9.1680   10.9010   24.0060 N   0  0  0  0  0  0  0  0  0  0  0  0
    8.1050   10.3630   24.7020 C   0  0  0  0  0  0  0  0  0  0  0  0
    7.9470    9.1650   24.7080 O   0  0  0  0  0  0  0  0  0  0  0  0
  1  2  2  0
  2  3  1  0
  4  3  1  6
  4  5  1  0
  5  6  1  0
  6  7  1  6
  7  8  1  0
  8  9  2  0
  9 10  1  0
 10 11  2  0
  6 12  1  0
  2 13  1  0
 13 14  2  0
 14 15  1  0
 15 16  2  0
 16 17  1  0
 17 18  1  0
 18 19  2  0
 19 20  1  0
 20 21  1  0
 16 22  1  0
 22 23  1  0
 23 24  2  0
 12  4  1  0
 23 13  1  0
 11  7  1  0
 21 17  2  0
A    1
 O1 
A    2
 C1 
A    3
 N1 
A    4
 C2 
A    5
 C3 
A    6
 C4 
A    7
 N2 
A    8
 C5 
A    9
 C6 
A   10
 C7 
A   11
 N3 
A   12
 C8 
A   13
 C9 
A   14
 C10
A   15
 C11
A   16
 C12
A   17
 C13
A   18
 N4 
A   19
 N5 
A   20
 N6 
A   21
 N7 
A   22
 N8 
A   23
 C14
A   24
 O2 
M  END
>  <similarity>  (32) 
NA

>  <smiles>  (32) 
O=C(NC1CC(n2cccn2)C1)c1ccc(-c2nn[nH]n2)[nH]c1=O

>  <cmpd_id>  (32) 
ENAMINE:PV-002776750214

>  <used_subnode>  (32) 
NA

>  <used_synthon>  (32) 
NA

>  <ref_subnode>  (32) 
O=CNC1CCC1

>  <ref_synthon>  (32) 
[Xe]n1cccn1

>  <fragmentA>  (32) 
x0556_0A

>  <fragmentB>  (32) 
x0310_0A

>  <HA>  (32) 
24

>  <HBD>  (32) 
3

>  <HBA>  (32) 
7

>  <MW>  (32) 
326.12397168800004

>  <TPSA>  (32) 
134.24

>  <LogP>  (32) 
-0.11500000000000032

>  <RBs>  (32) 
4

>  <G_bound>  (32) 
-3.8629728610225302

>  <G_unbound>  (32) 
1.2052889957396569

>  <deltaG>  (32) 
-5.068261856762187

>  <comRMSD>  (32) 
0.7645159519460428

>  <substructure_overlap_check>  (32) 
True

>  <sucos>  (32) 
0.5580732950893312

>  <interactions>  (32) 
Hydrophobic_PRO-107,Hydrophobic_HIS-104,PiStacking_HIS-104,Hydrophobic_GLU-106,HBAcceptor_SER-105,HBDonor_SER-105

>  <total_num_ints>  (32) 
6

>  <total_num_ints_nonhyd>  (32) 
3

>  <num_uniq_frag_ints>  (32) 
8

>  <num_repl_uniq_ints>  (32) 
4

>  <num_uniq_ints_lost>  (32) 
4

>  <num_new_uniq_ints>  (32) 
2

>  <int_check>  (32) 
True

>  <original SMILES>  (32) 
O=C(NC1CC(n2cccn2)C1)c1ccc(-c2nn[nH]n2)[nH]c1=O

>  <original_name>  (32) 
x0556_0A-x0310_0A_1844_PXX

>  <ref_mols>  (32) 
Ax0556a,Ax0310a

>  <ref_pdb>  (32) 
Ax0310a

>  <rationale>  (32) 
FragNet: perfect merge incl O=CNC1CCC1,[Xe]n1cccn1

$$$$
x0365_0A-x0310_0A_1630_B1X_rgrp-3
     RDKit          3D

 14 15  0  0  0  0  0  0  0  0999 V2000
    7.5330   12.0430   32.0950 C   0  0  0  0  0  0  0  0  0  0  0  0
    7.1210   11.8650   30.6400 C   0  0  0  0  0  0  0  0  0  0  0  0
    6.6300   10.4440   30.3250 C   0  0  0  0  0  0  0  0  0  0  0  0
    6.2020   10.1830   28.8790 C   0  0  0  0  0  0  0  0  0  0  0  0
    6.3140   11.3620   27.9170 C   0  0  0  0  0  0  0  0  0  0  0  0
    5.9250   11.1350   26.4780 C   0  0  0  0  0  0  0  0  0  0  0  0
    6.7400   10.2050   25.7830 N   0  0  0  0  0  0  0  0  0  0  0  0
    7.7940   10.4600   24.9110 C   0  0  0  0  0  0  0  0  0  0  0  0
    8.5370    9.5320   24.2170 N   0  0  0  0  0  0  0  0  0  0  0  0
    9.6020    9.9850   23.3450 C   0  0  0  0  0  0  0  0  0  0  0  0
    9.5370   11.5200   23.4980 C   0  0  0  0  0  0  0  0  0  0  0  0
    8.3110   12.0750   24.5780 S   0  0  0  0  0  0  0  0  0  0  0  0
    6.7680   12.6270   28.2900 C   0  0  0  0  0  0  0  0  0  0  0  0
    7.1900   12.8910   29.7120 C   0  0  0  0  0  0  0  0  0  0  0  0
  1  2  1  0
  2  3  2  0
  3  4  1  0
  4  5  2  0
  5  6  1  0
  6  7  1  0
  7  8  1  0
  8  9  2  0
  9 10  1  0
 10 11  2  0
 11 12  1  0
  5 13  1  0
 13 14  2  0
 14  2  1  0
 12  8  1  0
A    1
 C1 
A    2
 C2 
A    3
 C3 
A    4
 C4 
A    5
 C5 
A    6
 C6 
A    7
 N1 
A    8
 C7 
A    9
 N2 
A   10
 C8 
A   11
 C9 
A   12
 S1 
A   13
 C10
A   14
 C11
M  END
>  <similarity>  (33) 
1.0

>  <smiles>  (33) 
Cc1ccc(CNc2nccs2)cc1

>  <cmpd_id>  (33) 
CHEMSPACE-BB:CSMB00000197447,ENAMINE:Z86277564

>  <used_subnode>  (33) 
NCc1ccccc1

>  <used_synthon>  (33) 
[Xe]c1nccs1

>  <ref_subnode>  (33) 
NCc1ccccc1

>  <ref_synthon>  (33) 
[Xe]n1cccn1

>  <fragmentA>  (33) 
x0365_0A

>  <fragmentB>  (33) 
x0310_0A

>  <HA>  (33) 
14

>  <HBD>  (33) 
1

>  <HBA>  (33) 
3

>  <MW>  (33) 
204.072119384

>  <TPSA>  (33) 
24.92

>  <LogP>  (33) 
3.063620000000001

>  <RBs>  (33) 
3

>  <G_bound>  (33) 
-6.342181497745946

>  <G_unbound>  (33) 
0.14200076828043495

>  <deltaG>  (33) 
-6.484182266026381

>  <comRMSD>  (33) 
0.1452867431239005

>  <substructure_overlap_check>  (33) 
True

>  <sucos>  (33) 
0.5586743183573103

>  <interactions>  (33) 
Hydrophobic_GLU-106,Hydrophobic_PRO-107,HBAcceptor_SER-105,HBDonor_SER-105

>  <total_num_ints>  (33) 
4

>  <total_num_ints_nonhyd>  (33) 
2

>  <num_uniq_frag_ints>  (33) 
6

>  <num_repl_uniq_ints>  (33) 
3

>  <num_uniq_ints_lost>  (33) 
3

>  <num_new_uniq_ints>  (33) 
1

>  <int_check>  (33) 
True

>  <original SMILES>  (33) 
Cc1ccc(CNc2nccs2)cc1

>  <original_name>  (33) 
x0365_0A-x0310_0A_1630_B1X_rgrp-3

>  <ref_mols>  (33) 
Ax0365a,Ax0310a

>  <ref_pdb>  (33) 
Ax0310a

>  <rationale>  (33) 
FragNet: 1 round bioisosteric merging incl NCc1ccccc1 and [Xe]c1nccs1 replacing [Xe]n1cccn1

$$$$
x0365_0A-x0310_0A_1630_B1X_rgrp-0
     RDKit          3D

 14 15  0  0  0  0  0  0  0  0999 V2000
    5.1780    9.1440   28.5480 C   0  0  0  0  0  0  0  0  0  0  0  0
    5.9170   10.4280   28.8790 C   0  0  0  0  0  0  0  0  0  0  0  0
    6.2800   10.6160   30.3510 C   0  0  0  0  0  0  0  0  0  0  0  0
    7.0080   11.9280   30.6430 C   0  0  0  0  0  0  0  0  0  0  0  0
    7.3030   12.8720   29.5830 C   0  0  0  0  0  0  0  0  0  0  0  0
    6.9240   12.5760   28.2780 C   0  0  0  0  0  0  0  0  0  0  0  0
    6.2560   11.3990   27.9120 C   0  0  0  0  0  0  0  0  0  0  0  0
    5.9550   11.2830   26.4060 C   0  0  0  0  0  0  0  0  0  0  0  0
    6.8310   10.2690   25.8380 N   0  0  0  0  0  0  0  0  0  0  0  0
    7.8260   10.5140   24.9460 C   0  0  0  0  0  0  0  0  0  0  0  0
    8.4460    9.5110   24.3050 N   0  0  0  0  0  0  0  0  0  0  0  0
    9.4780   10.0290   23.4090 C   0  0  0  0  0  0  0  0  0  0  0  0
    9.5280   11.5450   23.4690 C   0  0  0  0  0  0  0  0  0  0  0  0
    8.3670   12.1330   24.5650 S   0  0  0  0  0  0  0  0  0  0  0  0
  1  2  1  0
  2  3  2  0
  3  4  1  0
  4  5  2  0
  5  6  1  0
  6  7  2  0
  7  8  1  0
  8  9  1  0
  9 10  1  0
 10 11  2  0
 11 12  1  0
 12 13  2  0
 13 14  1  0
  7  2  1  0
 14 10  1  0
A    1
 C1 
A    2
 C2 
A    3
 C3 
A    4
 C4 
A    5
 C5 
A    6
 C6 
A    7
 C7 
A    8
 C8 
A    9
 N1 
A   10
 C9 
A   11
 N2 
A   12
 C10
A   13
 C11
A   14
 S1 
M  END
>  <similarity>  (34) 
1.0

>  <smiles>  (34) 
Cc1ccccc1CNc1nccs1

>  <cmpd_id>  (34) 
ENAMINE:Z86362311,CHEMSPACE-BB:CSMB00000197507

>  <used_subnode>  (34) 
NCc1ccccc1

>  <used_synthon>  (34) 
[Xe]c1nccs1

>  <ref_subnode>  (34) 
NCc1ccccc1

>  <ref_synthon>  (34) 
[Xe]n1cccn1

>  <fragmentA>  (34) 
x0365_0A

>  <fragmentB>  (34) 
x0310_0A

>  <HA>  (34) 
14

>  <HBD>  (34) 
1

>  <HBA>  (34) 
3

>  <MW>  (34) 
204.072119384

>  <TPSA>  (34) 
24.92

>  <LogP>  (34) 
3.063620000000001

>  <RBs>  (34) 
3

>  <G_bound>  (34) 
-6.523400021528269

>  <G_unbound>  (34) 
0.05636243989128066

>  <deltaG>  (34) 
-6.579762461419549

>  <comRMSD>  (34) 
0.20672406155611245

>  <substructure_overlap_check>  (34) 
True

>  <sucos>  (34) 
0.5591060916231768

>  <interactions>  (34) 
Hydrophobic_GLU-106,Hydrophobic_PRO-107,HBAcceptor_SER-105,HBDonor_SER-105

>  <total_num_ints>  (34) 
4

>  <total_num_ints_nonhyd>  (34) 
2

>  <num_uniq_frag_ints>  (34) 
6

>  <num_repl_uniq_ints>  (34) 
3

>  <num_uniq_ints_lost>  (34) 
3

>  <num_new_uniq_ints>  (34) 
1

>  <int_check>  (34) 
True

>  <original SMILES>  (34) 
Cc1ccccc1CNc1nccs1

>  <original_name>  (34) 
x0365_0A-x0310_0A_1630_B1X_rgrp-0

>  <ref_mols>  (34) 
Ax0365a,Ax0310a

>  <ref_pdb>  (34) 
Ax0310a

>  <rationale>  (34) 
FragNet: 1 round bioisosteric merging incl NCc1ccccc1 and [Xe]c1nccs1 replacing [Xe]n1cccn1

$$$$
x0556_0A-x0566_0A_173_B1X
     RDKit          3D

 21 24  0  0  0  0  0  0  0  0999 V2000
    5.0790   12.3630   27.1740 O   0  0  0  0  0  0  0  0  0  0  0  0
    5.6830   11.3620   26.7980 C   0  0  0  0  0  0  0  0  0  0  0  0
    5.4050   10.0620   27.2100 N   0  0  0  0  0  0  0  0  0  0  0  0
    4.4170    9.7050   28.2420 C   0  0  1  0  0  0  0  0  0  0  0  0
    3.2690    8.7990   27.7250 C   0  0  0  0  0  0  0  0  0  0  0  0
    3.4390    7.9070   28.9750 C   0  0  1  0  0  0  0  0  0  0  0  0
    3.3660    6.3990   28.7640 C   0  0  0  0  0  0  0  0  0  0  0  0
    1.9620    5.9230   28.7110 C   0  0  0  0  0  0  0  0  0  0  0  0
    1.1610    6.0900   27.6140 N   0  0  0  0  0  0  0  0  0  0  0  0
   -0.0100    5.5470   27.9210 N   0  0  0  0  0  0  0  0  0  0  0  0
    0.1430    5.0870   29.1680 N   0  0  0  0  0  0  0  0  0  0  0  0
    1.3520    5.2890   29.7230 N   0  0  0  0  0  0  0  0  0  0  0  0
    4.8690    8.4880   29.0760 C   0  0  0  0  0  0  0  0  0  0  0  0
    6.7640   11.3710   25.8700 C   0  0  0  0  0  0  0  0  0  0  0  0
    7.2990   10.2630   25.3420 C   0  0  0  0  0  0  0  0  0  0  0  0
    8.3090   10.6240   24.5020 C   0  0  0  0  0  0  0  0  0  0  0  0
    9.4250    9.8080   23.5000 S   0  0  0  0  0  0  0  0  0  0  0  0
   10.0450   11.3370   23.0520 C   0  0  0  0  0  0  0  0  0  0  0  0
    9.4310   12.4200   23.6430 C   0  0  0  0  0  0  0  0  0  0  0  0
    8.4060   11.9680   24.4970 C   0  0  0  0  0  0  0  0  0  0  0  0
    7.4440   12.4650   25.3520 N   0  0  0  0  0  0  0  0  0  0  0  0
  1  2  2  0
  2  3  1  0
  4  3  1  6
  4  5  1  0
  5  6  1  0
  6  7  1  6
  7  8  1  0
  8  9  1  0
  9 10  2  0
 10 11  1  0
 11 12  1  0
  6 13  1  0
  2 14  1  0
 14 15  2  0
 15 16  1  0
 16 17  1  0
 17 18  1  0
 18 19  2  0
 19 20  1  0
 20 21  1  0
 13  4  1  0
 21 14  1  0
 12  8  2  0
 20 16  2  0
A    1
 O1 
A    2
 C1 
A    3
 N1 
A    4
 C2 
A    5
 C3 
A    6
 C4 
A    7
 C5 
A    8
 C6 
A    9
 N2 
A   10
 N3 
A   11
 N4 
A   12
 N5 
A   13
 C7 
A   14
 C8 
A   15
 C9 
A   16
 C10
A   17
 S1 
A   18
 C11
A   19
 C12
A   20
 C13
A   21
 N6 
M  END
>  <similarity>  (35) 
1.0

>  <smiles>  (35) 
O=C(NC1CC(Cc2nn[nH]n2)C1)c1cc2sccc2[nH]1

>  <cmpd_id>  (35) 
ENAMINE:Z4440604382

>  <used_subnode>  (35) 
O=CNC1CCC1

>  <used_synthon>  (35) 
[Xe]c1cc2sccc2[nH]1

>  <ref_subnode>  (35) 
O=CNC1CCC1

>  <ref_synthon>  (35) 
[Xe]c1cccc2cc[nH]c12

>  <fragmentA>  (35) 
x0556_0A

>  <fragmentB>  (35) 
x0566_0A

>  <HA>  (35) 
21

>  <HBD>  (35) 
3

>  <HBA>  (35) 
5

>  <MW>  (35) 
302.09498006800004

>  <TPSA>  (35) 
99.35

>  <LogP>  (35) 
1.4935999999999994

>  <RBs>  (35) 
4

>  <G_bound>  (35) 
-6.596066161963829

>  <G_unbound>  (35) 
0.6377459571111324

>  <deltaG>  (35) 
-7.233812119074962

>  <comRMSD>  (35) 
1.118730492055586

>  <substructure_overlap_check>  (35) 
True

>  <sucos>  (35) 
0.5596649230833372

>  <interactions>  (35) 
Hydrophobic_PRO-107,Hydrophobic_GLU-106,HBDonor_SER-105,Hydrophobic_HIS-104,PiCation_HIS-104,PiStacking_HIS-104

>  <total_num_ints>  (35) 
6

>  <total_num_ints_nonhyd>  (35) 
3

>  <num_uniq_frag_ints>  (35) 
5

>  <num_repl_uniq_ints>  (35) 
4

>  <num_uniq_ints_lost>  (35) 
1

>  <num_new_uniq_ints>  (35) 
2

>  <int_check>  (35) 
True

>  <original SMILES>  (35) 
O=C(NC1CC(Cc2nn[nH]n2)C1)c1cc2sccc2[nH]1

>  <original_name>  (35) 
x0556_0A-x0566_0A_173_B1X

>  <ref_mols>  (35) 
Ax0556a,Ax0566a

>  <ref_pdb>  (35) 
Ax0310a

>  <rationale>  (35) 
FragNet: 1 round bioisosteric merging incl O=CNC1CCC1 and [Xe]c1cc2sccc2[nH]1 replacing [Xe]c1cccc2cc[nH]c12

$$$$
x0556_0A-x0719_1A_1303_B1X
     RDKit          3D

 22 23  0  0  0  0  0  0  0  0999 V2000
    3.3540    6.0360   27.3940 C   0  0  0  0  0  0  0  0  0  0  0  0
    3.8450    5.8250   28.8190 C   0  0  0  0  0  0  0  0  0  0  0  0
    5.0420    4.8700   28.8440 C   0  0  0  0  0  0  0  0  0  0  0  0
    2.7390    5.2300   29.6950 C   0  0  0  0  0  0  0  0  0  0  0  0
    4.3820    7.0330   29.3710 O   0  0  0  0  0  0  0  0  0  0  0  0
    3.8880    8.3430   29.0340 C   0  0  2  0  0  0  0  0  0  0  0  0
    3.9440    8.7850   27.7330 C   0  0  0  0  0  0  0  0  0  0  0  0
    4.6580    9.9760   27.7820 C   0  0  2  0  0  0  0  0  0  0  0  0
    5.8330   10.1490   26.8680 N   0  0  0  0  0  0  0  0  0  0  0  0
    5.9910   11.3680   26.1890 C   0  0  0  0  0  0  0  0  0  0  0  0
    5.1940   12.2700   26.4110 O   0  0  0  0  0  0  0  0  0  0  0  0
    7.0380   11.5680   25.2700 N   0  0  0  0  0  0  0  0  0  0  0  0
    7.9110   10.4660   25.0200 C   0  0  0  0  0  0  0  0  0  0  0  0
    8.9770   10.8400   23.9610 C   0  0  0  0  0  0  0  0  0  0  0  0
    9.0450   12.3540   24.2390 C   0  0  0  0  0  0  0  0  0  0  0  0
    7.7690   12.8120   24.9520 C   0  0  1  0  0  0  0  0  0  0  0  0
    7.0140   13.9440   24.2570 C   0  0  0  0  0  0  0  0  0  0  0  0
    7.1670   14.2250   22.5020 S   0  0  0  0  0  6  0  0  0  0  0  0
    6.1000   15.4810   22.3500 N   0  0  0  0  0  0  0  0  0  0  0  0
    8.5020   14.6460   22.1570 O   0  0  0  0  0  0  0  0  0  0  0  0
    6.6210   13.2010   21.7080 O   0  0  0  0  0  0  0  0  0  0  0  0
    4.9630    9.4660   29.2190 C   0  0  0  0  0  0  0  0  0  0  0  0
  1  2  1  0
  2  3  1  0
  2  4  1  0
  2  5  1  0
  6  5  1  6
  6  7  1  0
  7  8  1  0
  8  9  1  6
  9 10  1  0
 10 11  2  0
 10 12  1  0
 12 13  1  0
 13 14  1  0
 14 15  1  0
 15 16  1  0
 16 17  1  6
 17 18  1  0
 18 19  1  0
 18 20  2  0
 18 21  2  0
  8 22  1  0
 22  6  1  0
 16 12  1  0
A    1
 C1 
A    2
 C2 
A    3
 C3 
A    4
 C4 
A    5
 O1 
A    6
 C5 
A    7
 C6 
A    8
 C7 
A    9
 N1 
A   10
 C8 
A   11
 O2 
A   12
 N2 
A   13
 C9 
A   14
 C10
A   15
 C11
A   16
 C12
A   17
 C13
A   18
 S1 
A   19
 N3 
A   20
 O3 
A   21
 O4 
A   22
 C14
M  END
>  <similarity>  (36) 
1.0

>  <smiles>  (36) 
CC(C)(C)OC1CC(NC(=O)N2CCCC2CS(N)(=O)=O)C1

>  <cmpd_id>  (36) 
ENAMINE:PV-002085671850

>  <used_subnode>  (36) 
O=CNC1CCC1

>  <used_synthon>  (36) 
NS(=O)(=O)C[Xe]

>  <ref_subnode>  (36) 
O=CNC1CCC1

>  <ref_synthon>  (36) 
CC([Xe])CS(N)(=O)=O

>  <fragmentA>  (36) 
x0556_0A

>  <fragmentB>  (36) 
x0719_1A

>  <HA>  (36) 
22

>  <HBD>  (36) 
2

>  <HBA>  (36) 
4

>  <MW>  (36) 
333.17222734399996

>  <TPSA>  (36) 
101.72999999999999

>  <LogP>  (36) 
0.7950000000000014

>  <RBs>  (36) 
4

>  <G_bound>  (36) 
-5.02053836632637

>  <G_unbound>  (36) 
1.5622985592646057

>  <deltaG>  (36) 
-6.582836925590976

>  <comRMSD>  (36) 
0.7608032416683367

>  <substructure_overlap_check>  (36) 
True

>  <sucos>  (36) 
0.5601525987508597

>  <interactions>  (36) 
Hydrophobic_PRO-107,HBAcceptor_GLY-127,Hydrophobic_GLU-106,HBDonor_SER-105,Hydrophobic_HIS-104

>  <total_num_ints>  (36) 
5

>  <total_num_ints_nonhyd>  (36) 
2

>  <num_uniq_frag_ints>  (36) 
6

>  <num_repl_uniq_ints>  (36) 
5

>  <num_uniq_ints_lost>  (36) 
1

>  <num_new_uniq_ints>  (36) 
0

>  <int_check>  (36) 
True

>  <original SMILES>  (36) 
CC(C)(C)OC1CC(NC(=O)N2CCCC2CS(N)(=O)=O)C1

>  <original_name>  (36) 
x0556_0A-x0719_1A_1303_B1X

>  <ref_mols>  (36) 
Ax0556a,Ax0719a

>  <ref_pdb>  (36) 
Ax0310a

>  <rationale>  (36) 
FragNet: 1 round bioisosteric merging incl O=CNC1CCC1 and NS(=O)(=O)C[Xe] replacing CC([Xe])CS(N)(=O)=O

$$$$
x0556_0A-x0528_0A_999_B1X
     RDKit          3D

 18 20  0  0  0  0  0  0  0  0999 V2000
    6.0200   10.0080   27.0590 N   0  0  0  0  0  0  0  0  0  0  0  0
    6.1680   11.1030   26.2580 C   0  0  0  0  0  0  0  0  0  0  0  0
    5.4000   12.0530   26.3590 O   0  0  0  0  0  0  0  0  0  0  0  0
    7.2890   11.0480   25.2980 C   0  0  0  0  0  0  0  0  0  0  0  0
    7.8620   12.1400   24.5970 C   0  0  0  0  0  0  0  0  0  0  0  0
    8.8710   11.6150   23.8200 C   0  0  0  0  0  0  0  0  0  0  0  0
    9.7750   12.1760   22.9280 N   0  0  0  0  0  0  0  0  0  0  0  0
    9.6080   13.4440   22.3520 C   0  0  0  0  0  0  0  0  0  0  0  0
    8.5830   13.9300   21.8800 O   0  0  0  0  0  0  0  0  0  0  0  0
   10.8930   14.2520   22.4070 C   0  0  2  0  0  0  0  0  0  0  0  0
   11.4280   14.1980   23.8540 C   0  0  0  0  0  0  0  0  0  0  0  0
   12.9330   14.2390   23.6490 C   0  0  0  0  0  0  0  0  0  0  0  0
   12.9540   14.9390   22.3020 C   0  0  2  0  0  0  0  0  0  0  0  0
   12.0140   16.1240   22.3920 C   0  0  0  0  0  0  0  0  0  0  0  0
   10.7510   15.5910   21.9630 O   0  0  0  0  0  0  0  0  0  0  0  0
   12.0990   13.9550   21.5370 C   0  0  0  0  0  0  0  0  0  0  0  0
    8.8550   10.2730   24.0870 N   0  0  0  0  0  0  0  0  0  0  0  0
    7.9120    9.9010   24.9730 N   0  0  0  0  0  0  0  0  0  0  0  0
  1  2  1  0
  2  3  2  0
  2  4  1  0
  4  5  1  0
  5  6  2  0
  6  7  1  0
  7  8  1  0
  8  9  2  0
 10  8  1  1
 10 11  1  0
 11 12  1  0
 13 12  1  1
 13 14  1  0
 14 15  1  0
 13 16  1  0
  6 17  1  0
 17 18  1  0
 18  4  2  0
 15 10  1  0
 16 10  1  0
A    1
 N1 
A    2
 C1 
A    3
 O1 
A    4
 C2 
A    5
 C3 
A    6
 C4 
A    7
 N2 
A    8
 C5 
A    9
 O2 
A   10
 C6 
A   11
 C7 
A   12
 C8 
A   13
 C9 
A   14
 C10
A   15
 O3 
A   16
 C11
A   17
 N3 
A   18
 N4 
M  END
>  <similarity>  (37) 
1.0

>  <smiles>  (37) 
NC(=O)c1cc(NC(=O)C23CCC(CO2)C3)[nH]n1

>  <cmpd_id>  (37) 
ENAMINE:PV-002817997743

>  <used_subnode>  (37) 
NC(=O)c1cc[nH]n1

>  <used_synthon>  (37) 
[Xe]C12CCC(CO1)C2

>  <ref_subnode>  (37) 
NC(=O)c1cc[nH]n1

>  <ref_synthon>  (37) 
O=C1CCCN1[Xe]

>  <fragmentA>  (37) 
x0556_0A

>  <fragmentB>  (37) 
x0528_0A

>  <HA>  (37) 
18

>  <HBD>  (37) 
3

>  <HBA>  (37) 
4

>  <MW>  (37) 
250.106590308

>  <TPSA>  (37) 
110.10000000000001

>  <LogP>  (37) 
0.01619999999999916

>  <RBs>  (37) 
3

>  <G_bound>  (37) 
-5.46899009226056

>  <G_unbound>  (37) 
0.5177830917120317

>  <deltaG>  (37) 
-5.986773183972591

>  <comRMSD>  (37) 
0.8536430645655466

>  <substructure_overlap_check>  (37) 
True

>  <sucos>  (37) 
0.5604670013745101

>  <interactions>  (37) 
Hydrophobic_TYR-90,Hydrophobic_PRO-107,Hydrophobic_TYR-89,Hydrophobic_HIS-21,HBDonor_SER-105,HBAcceptor_SER-87

>  <total_num_ints>  (37) 
6

>  <total_num_ints_nonhyd>  (37) 
2

>  <num_uniq_frag_ints>  (37) 
7

>  <num_repl_uniq_ints>  (37) 
4

>  <num_uniq_ints_lost>  (37) 
3

>  <num_new_uniq_ints>  (37) 
2

>  <int_check>  (37) 
True

>  <original SMILES>  (37) 
NC(=O)c1cc(NC(=O)C23CCC(CO2)C3)[nH]n1

>  <original_name>  (37) 
x0556_0A-x0528_0A_999_B1X

>  <ref_mols>  (37) 
Ax0556a,Ax0528a

>  <ref_pdb>  (37) 
Ax0310a

>  <rationale>  (37) 
FragNet: 1 round bioisosteric merging incl NC(=O)c1cc[nH]n1 and [Xe]C12CCC(CO1)C2 replacing O=C1CCCN1[Xe]

$$$$
x0446_0A-x0719_1A_1056_B1X
     RDKit          3D

 23 24  0  0  0  0  0  0  0  0999 V2000
    2.4850   14.1520   26.2510 C   0  0  0  0  0  0  0  0  0  0  0  0
    3.8870   13.9690   26.0720 O   0  0  0  0  0  0  0  0  0  0  0  0
    4.5620   13.1730   27.0660 C   0  0  1  0  0  0  0  0  0  0  0  0
    3.5200   12.3790   27.8550 C   0  0  0  0  0  0  0  0  0  0  0  0
    5.5800   12.2500   26.3590 C   0  0  0  0  0  0  0  0  0  0  0  0
    5.4640   10.9300   26.3760 N   0  0  0  0  0  0  0  0  0  0  0  0
    6.4920   10.3740   25.6500 C   0  0  0  0  0  0  0  0  0  0  0  0
    7.4550   11.3480   25.0560 C   0  0  0  0  0  0  0  0  0  0  0  0
    8.6420   10.7970   24.2240 C   0  0  0  0  0  0  0  0  0  0  0  0
    9.1510    9.7560   24.4910 O   0  0  0  0  0  0  0  0  0  0  0  0
    9.1310   11.4150   23.0920 N   0  0  0  0  0  0  0  0  0  0  0  0
    9.7730   12.7180   23.0570 C   0  0  0  0  0  0  0  0  0  0  0  0
    9.0040   13.6820   23.9580 C   0  0  0  0  0  0  0  0  0  0  0  0
    9.5720   13.9000   25.1810 C   0  0  0  0  0  0  0  0  0  0  0  0
    9.0060   14.7000   26.1690 C   0  0  0  0  0  0  0  0  0  0  0  0
    7.8220   15.3190   25.9500 C   0  0  0  0  0  0  0  0  0  0  0  0
    7.2170   15.1690   24.7120 C   0  0  0  0  0  0  0  0  0  0  0  0
    7.8100   14.3760   23.7120 C   0  0  0  0  0  0  0  0  0  0  0  0
    7.0020   14.3620   22.1560 S   0  0  0  0  0  6  0  0  0  0  0  0
    5.6400   15.3060   22.4250 N   0  0  0  0  0  0  0  0  0  0  0  0
    7.8910   15.1070   21.2920 O   0  0  0  0  0  0  0  0  0  0  0  0
    6.6140   13.0940   21.7570 O   0  0  0  0  0  0  0  0  0  0  0  0
    6.9450   12.9000   25.4900 S   0  0  0  0  0  0  0  0  0  0  0  0
  1  2  1  0
  2  3  1  0
  3  4  1  6
  3  5  1  0
  5  6  2  0
  6  7  1  0
  7  8  2  0
  8  9  1  0
  9 10  2  0
  9 11  1  0
 11 12  1  0
 12 13  1  0
 13 14  2  0
 14 15  1  0
 15 16  2  0
 16 17  1  0
 17 18  2  0
 18 19  1  0
 19 20  1  0
 19 21  2  0
 19 22  2  0
  8 23  1  0
 23  5  1  0
 18 13  1  0
A    1
 C1 
A    2
 O1 
A    3
 C2 
A    4
 C3 
A    5
 C4 
A    6
 N1 
A    7
 C5 
A    8
 C6 
A    9
 C7 
A   10
 O2 
A   11
 N2 
A   12
 C8 
A   13
 C9 
A   14
 C10
A   15
 C11
A   16
 C12
A   17
 C13
A   18
 C14
A   19
 S1 
A   20
 N3 
A   21
 O3 
A   22
 O4 
A   23
 S2 
M  END
>  <similarity>  (38) 
1.0

>  <smiles>  (38) 
COC(C)c1ncc(C(=O)NCc2ccccc2S(N)(=O)=O)s1

>  <cmpd_id>  (38) 
ENAMINE:Z2141354215

>  <used_subnode>  (38) 
CNC(=O)c1cncs1

>  <used_synthon>  (38) 
NS(=O)(=O)[Xe]

>  <ref_subnode>  (38) 
CNC(=O)c1cncs1

>  <ref_synthon>  (38) 
CC([Xe])CS(N)(=O)=O

>  <fragmentA>  (38) 
x0446_0A

>  <fragmentB>  (38) 
x0719_1A

>  <HA>  (38) 
23

>  <HBD>  (38) 
2

>  <HBA>  (38) 
6

>  <MW>  (38) 
355.066048024

>  <TPSA>  (38) 
111.38

>  <LogP>  (38) 
1.4279000000000004

>  <RBs>  (38) 
6

>  <G_bound>  (38) 
-1.574667474643315

>  <G_unbound>  (38) 
0.9949478365288972

>  <deltaG>  (38) 
-2.569615311172212

>  <comRMSD>  (38) 
1.2881335915530052

>  <substructure_overlap_check>  (38) 
True

>  <sucos>  (38) 
0.561001632000976

>  <interactions>  (38) 
HBDonor_GLU-85,Hydrophobic_PRO-107,HBAcceptor_GLY-127

>  <total_num_ints>  (38) 
3

>  <total_num_ints_nonhyd>  (38) 
2

>  <num_uniq_frag_ints>  (38) 
2

>  <num_repl_uniq_ints>  (38) 
2

>  <num_uniq_ints_lost>  (38) 
0

>  <num_new_uniq_ints>  (38) 
1

>  <int_check>  (38) 
True

>  <original SMILES>  (38) 
COC(C)c1ncc(C(=O)NCc2ccccc2S(N)(=O)=O)s1

>  <original_name>  (38) 
x0446_0A-x0719_1A_1056_B1X

>  <ref_mols>  (38) 
Ax0446a,Ax0719a

>  <ref_pdb>  (38) 
Ax0310a

>  <rationale>  (38) 
FragNet: 1 round bioisosteric merging incl CNC(=O)c1cncs1 and NS(=O)(=O)[Xe] replacing CC([Xe])CS(N)(=O)=O

$$$$
x0365_0A-x0528_0A_1157_PXX
     RDKit          3D

 22 24  0  0  0  0  0  0  0  0999 V2000
   10.0840   15.6550   21.0490 O   0  0  0  0  0  0  0  0  0  0  0  0
   10.8850   15.2440   21.8740 C   0  0  0  0  0  0  0  0  0  0  0  0
   12.1850   15.6430   22.0340 N   0  0  0  0  0  0  0  0  0  0  0  0
   12.8710   14.6830   22.8410 C   0  0  0  0  0  0  0  0  0  0  0  0
   11.9270   13.4850   22.8500 C   0  0  0  0  0  0  0  0  0  0  0  0
   10.5920   14.2120   22.9100 C   0  0  2  0  0  0  0  0  0  0  0  0
    9.2670   13.5320   22.5650 C   0  0  0  0  0  0  0  0  0  0  0  0
    8.4740   14.0880   21.8010 O   0  0  0  0  0  0  0  0  0  0  0  0
    8.9830   12.3130   23.1310 N   0  0  0  0  0  0  0  0  0  0  0  0
   10.1960   11.5610   23.1760 C   0  0  0  0  0  0  0  0  0  0  0  0
   10.0050   10.0640   23.2750 C   0  0  0  0  0  0  0  0  0  0  0  0
    8.7550    9.6680   24.0180 C   0  0  0  0  0  0  0  0  0  0  0  0
    8.0580   10.7440   24.9160 C   0  0  2  0  0  0  0  0  0  0  0  0
    6.7580   10.2970   25.5280 N   0  0  0  0  0  0  0  0  0  0  0  0
    5.9220   11.2280   26.3290 C   0  0  0  0  0  0  0  0  0  0  0  0
    6.3190   11.3570   27.7860 C   0  0  0  0  0  0  0  0  0  0  0  0
    6.2050   10.2770   28.6830 C   0  0  0  0  0  0  0  0  0  0  0  0
    6.5880   10.4230   30.0220 C   0  0  0  0  0  0  0  0  0  0  0  0
    7.0840   11.6430   30.4770 C   0  0  0  0  0  0  0  0  0  0  0  0
    7.1980   12.7210   29.6000 C   0  0  0  0  0  0  0  0  0  0  0  0
    6.8170   12.5780   28.2640 C   0  0  0  0  0  0  0  0  0  0  0  0
    7.9990   12.1300   24.2260 C   0  0  0  0  0  0  0  0  0  0  0  0
  1  2  2  0
  2  3  1  0
  3  4  1  0
  4  5  1  0
  5  6  1  0
  6  7  1  6
  7  8  2  0
  7  9  1  0
  9 10  1  0
 10 11  1  0
 11 12  1  0
 12 13  1  0
 13 14  1  6
 14 15  1  0
 15 16  1  0
 16 17  2  0
 17 18  1  0
 18 19  2  0
 19 20  1  0
 20 21  2  0
 13 22  1  0
  6  2  1  0
 22  9  1  0
 21 16  1  0
A    1
 O1 
A    2
 C1 
A    3
 N1 
A    4
 C2 
A    5
 C3 
A    6
 C4 
A    7
 C5 
A    8
 O2 
A    9
 N2 
A   10
 C6 
A   11
 C7 
A   12
 C8 
A   13
 C9 
A   14
 N3 
A   15
 C10
A   16
 C11
A   17
 C12
A   18
 C13
A   19
 C14
A   20
 C15
A   21
 C16
A   22
 C17
M  END
>  <similarity>  (39) 
NA

>  <smiles>  (39) 
O=C1NCCC1C(=O)N1CCCC(NCc2ccccc2)C1

>  <cmpd_id>  (39) 
ENAMINE:Z2659041027

>  <used_subnode>  (39) 
NA

>  <used_synthon>  (39) 
NA

>  <ref_subnode>  (39) 
NCc1ccccc1

>  <ref_synthon>  (39) 
O=C1NCCC1[Xe]

>  <fragmentA>  (39) 
x0365_0A

>  <fragmentB>  (39) 
x0528_0A

>  <HA>  (39) 
22

>  <HBD>  (39) 
2

>  <HBA>  (39) 
3

>  <MW>  (39) 
301.179026976

>  <TPSA>  (39) 
61.440000000000005

>  <LogP>  (39) 
0.9033000000000004

>  <RBs>  (39) 
4

>  <G_bound>  (39) 
-2.133839739064249

>  <G_unbound>  (39) 
0.8258178156611892

>  <deltaG>  (39) 
-2.959657554725438

>  <comRMSD>  (39) 
0.5355825179895204

>  <substructure_overlap_check>  (39) 
True

>  <sucos>  (39) 
0.56150229809322

>  <interactions>  (39) 
Hydrophobic_PRO-107,HBAcceptor_SER-87,Hydrophobic_HIS-21,Hydrophobic_GLU-106,HBDonor_SER-105

>  <total_num_ints>  (39) 
5

>  <total_num_ints_nonhyd>  (39) 
2

>  <num_uniq_frag_ints>  (39) 
5

>  <num_repl_uniq_ints>  (39) 
4

>  <num_uniq_ints_lost>  (39) 
1

>  <num_new_uniq_ints>  (39) 
1

>  <int_check>  (39) 
True

>  <original SMILES>  (39) 
O=C1NCCC1C(=O)N1CCCC(NCc2ccccc2)C1

>  <original_name>  (39) 
x0365_0A-x0528_0A_1157_PXX

>  <ref_mols>  (39) 
Ax0365a,Ax0528a

>  <ref_pdb>  (39) 
Ax0310a

>  <rationale>  (39) 
FragNet: perfect merge incl NCc1ccccc1,O=C1NCCC1[Xe]

$$$$
x0365_0A-x0310_0A_2820_B1X
     RDKit          3D

 25 26  0  0  0  0  0  0  0  0999 V2000
   12.0610   15.7470   23.2580 C   0  0  0  0  0  0  0  0  0  0  0  0
   12.0950   14.9960   21.9620 C   0  0  0  0  0  0  0  0  0  0  0  0
   13.3450   15.4710   21.2870 C   0  0  0  0  0  0  0  0  0  0  0  0
   10.7990   15.0450   21.0600 C   0  0  0  0  0  0  0  0  0  0  0  0
   12.2750   13.5810   22.4160 C   0  0  0  0  0  0  0  0  0  0  0  0
   11.2820   13.2550   23.4760 C   0  0  0  0  0  0  0  0  0  0  0  0
   11.4230   13.4950   24.6580 O   0  0  0  0  0  0  0  0  0  0  0  0
   10.1550   12.6820   23.0010 N   0  0  0  0  0  0  0  0  0  0  0  0
    9.3360   12.1940   24.0730 C   0  0  2  0  0  0  0  0  0  0  0  0
    9.0430   10.7140   23.8990 C   0  0  0  0  0  0  0  0  0  0  0  0
    8.1330   10.2420   24.8460 C   0  0  0  0  0  0  0  0  0  0  0  0
    6.9800   11.1390   25.1530 C   0  0  1  0  0  0  0  0  0  0  0  0
    5.9920   10.4460   25.9940 N   0  0  0  0  0  0  0  0  0  0  0  0
    5.2630   11.2030   26.9960 C   0  0  0  0  0  0  0  0  0  0  0  0
    6.0520   11.3740   28.2570 C   0  0  0  0  0  0  0  0  0  0  0  0
    6.2030   10.3070   29.1510 C   0  0  0  0  0  0  0  0  0  0  0  0
    6.9320   10.4780   30.3250 C   0  0  0  0  0  0  0  0  0  0  0  0
    7.5150   11.7160   30.6120 C   0  0  0  0  0  0  0  0  0  0  0  0
    7.3730   12.7890   29.7260 C   0  0  0  0  0  0  0  0  0  0  0  0
    8.0120   14.0880   30.0780 C   0  0  0  0  0  0  0  0  0  0  0  0
    7.7840   14.5800   31.3350 N   0  0  0  0  0  0  0  0  0  0  0  0
    8.7110   14.7050   29.2860 O   0  0  0  0  0  0  0  0  0  0  0  0
    6.6400   12.6140   28.5490 C   0  0  0  0  0  0  0  0  0  0  0  0
    7.3630   12.5270   25.5970 C   0  0  0  0  0  0  0  0  0  0  0  0
    8.1430   13.0990   24.4110 C   0  0  0  0  0  0  0  0  0  0  0  0
  1  2  1  0
  2  3  1  0
  2  4  1  0
  2  5  1  0
  5  6  1  0
  6  7  2  0
  6  8  1  0
  9  8  1  6
  9 10  1  0
 10 11  1  0
 11 12  1  0
 12 13  1  1
 13 14  1  0
 14 15  1  0
 15 16  2  0
 16 17  1  0
 17 18  2  0
 18 19  1  0
 19 20  1  0
 20 21  1  0
 20 22  2  0
 19 23  2  0
 12 24  1  0
 24 25  1  0
 25  9  1  0
 23 15  1  0
A    1
 C1 
A    2
 C2 
A    3
 C3 
A    4
 C4 
A    5
 C5 
A    6
 C6 
A    7
 O1 
A    8
 N1 
A    9
 C7 
A   10
 C8 
A   11
 C9 
A   12
 C10
A   13
 N2 
A   14
 C11
A   15
 C12
A   16
 C13
A   17
 C14
A   18
 C15
A   19
 C16
A   20
 C17
A   21
 N3 
A   22
 O2 
A   23
 C18
A   24
 C19
A   25
 C20
M  END
>  <similarity>  (40) 
1.0

>  <smiles>  (40) 
CC(C)(C)CC(=O)NC1CCC(NCc2cccc(C(N)=O)c2)CC1

>  <cmpd_id>  (40) 
ENAMINE:PV-000781716060

>  <used_subnode>  (40) 
NCc1ccccc1

>  <used_synthon>  (40) 
CC(C)(C)CC(=O)N[Xe]

>  <ref_subnode>  (40) 
NCc1ccccc1

>  <ref_synthon>  (40) 
N#CCC(=O)N[Xe]

>  <fragmentA>  (40) 
x0365_0A

>  <fragmentB>  (40) 
x0310_0A

>  <HA>  (40) 
25

>  <HBD>  (40) 
3

>  <HBA>  (40) 
3

>  <MW>  (40) 
345.241627232

>  <TPSA>  (40) 
84.22

>  <LogP>  (40) 
2.7387000000000006

>  <RBs>  (40) 
6

>  <G_bound>  (40) 
-5.287268821951485

>  <G_unbound>  (40) 
0.8085758750948123

>  <deltaG>  (40) 
-6.095844697046297

>  <comRMSD>  (40) 
0.48881036083320806

>  <substructure_overlap_check>  (40) 
True

>  <sucos>  (40) 
0.5617180490821725

>  <interactions>  (40) 
Hydrophobic_TYR-90,Hydrophobic_PRO-107,Hydrophobic_TYR-89,Hydrophobic_HIS-21,HBDonor_SER-125,Hydrophobic_GLU-106,HBDonor_SER-105

>  <total_num_ints>  (40) 
7

>  <total_num_ints_nonhyd>  (40) 
2

>  <num_uniq_frag_ints>  (40) 
6

>  <num_repl_uniq_ints>  (40) 
5

>  <num_uniq_ints_lost>  (40) 
1

>  <num_new_uniq_ints>  (40) 
2

>  <int_check>  (40) 
True

>  <original SMILES>  (40) 
CC(C)(C)CC(=O)NC1CCC(NCc2cccc(C(N)=O)c2)CC1

>  <original_name>  (40) 
x0365_0A-x0310_0A_2820_B1X

>  <ref_mols>  (40) 
Ax0365a,Ax0310a

>  <ref_pdb>  (40) 
Ax0310a

>  <rationale>  (40) 
FragNet: 1 round bioisosteric merging incl NCc1ccccc1 and CC(C)(C)CC(=O)N[Xe] replacing N#CCC(=O)N[Xe]

$$$$
x0556_0A-x0310_0A_4218_B1X
     RDKit          3D

 23 24  0  0  0  0  0  0  0  0999 V2000
   12.0950   15.6440   22.7610 C   0  0  0  0  0  0  0  0  0  0  0  0
   11.3360   14.4610   22.1280 C   0  0  0  0  0  0  0  0  0  0  0  0
   10.0820   14.8320   21.3090 C   0  0  0  0  0  0  0  0  0  0  0  0
   12.3000   13.9600   21.0950 C   0  0  0  0  0  0  0  0  0  0  0  0
   10.9780   13.4410   23.2330 C   0  0  0  0  0  0  0  0  0  0  0  0
   11.3820   13.5260   24.3910 O   0  0  0  0  0  0  0  0  0  0  0  0
   10.1420   12.4420   22.8210 N   0  0  0  0  0  0  0  0  0  0  0  0
    8.8220   12.2720   23.4340 C   0  0  1  0  0  0  0  0  0  0  0  0
    8.7100   10.8490   24.0070 C   0  0  0  0  0  0  0  0  0  0  0  0
    7.7120   10.6060   25.1460 C   0  0  0  0  0  0  0  0  0  0  0  0
    7.1150   11.8060   25.8830 C   0  0  2  0  0  0  0  0  0  0  0  0
    5.7490   11.4010   26.4840 C   0  0  0  0  0  0  0  0  0  0  0  0
    4.8080   12.1730   26.4470 O   0  0  0  0  0  0  0  0  0  0  0  0
    5.6650   10.1180   27.0780 N   0  0  0  0  0  0  0  0  0  0  0  0
    4.8000    9.7420   28.2690 C   0  0  0  0  0  0  0  0  0  0  0  0
    4.6500   10.9490   29.2020 C   0  0  0  0  0  0  0  0  0  0  0  0
    5.2860   10.6930   30.5600 C   0  0  0  0  0  0  0  0  0  0  0  0
    5.4920   11.8750   31.1930 F   0  0  0  0  0  0  0  0  0  0  0  0
    3.4210    9.1090   27.8310 C   0  0  0  0  0  0  0  0  0  0  0  0
    3.4780    8.2480   29.1060 C   0  0  0  0  0  0  0  0  0  0  0  0
    4.9940    8.3590   28.9630 C   0  0  0  0  0  0  0  0  0  0  0  0
    7.0960   13.1040   25.0580 C   0  0  0  0  0  0  0  0  0  0  0  0
    8.4620   13.3770   24.4320 C   0  0  0  0  0  0  0  0  0  0  0  0
  1  2  1  0
  2  3  1  0
  2  4  1  0
  2  5  1  0
  5  6  2  0
  5  7  1  0
  8  7  1  1
  8  9  1  0
  9 10  1  0
 10 11  1  0
 11 12  1  6
 12 13  2  0
 12 14  1  0
 14 15  1  0
 15 16  1  0
 16 17  1  0
 17 18  1  0
 15 19  1  0
 19 20  1  0
 20 21  1  0
 11 22  1  0
 22 23  1  0
 23  8  1  0
 21 15  1  0
A    1
 C1 
A    2
 C2 
A    3
 C3 
A    4
 C4 
A    5
 C5 
A    6
 O1 
A    7
 N1 
A    8
 C6 
A    9
 C7 
A   10
 C8 
A   11
 C9 
A   12
 C10
A   13
 O2 
A   14
 N2 
A   15
 C11
A   16
 C12
A   17
 C13
A   18
 F1 
A   19
 C14
A   20
 C15
A   21
 C16
A   22
 C17
A   23
 C18
M  END
>  <similarity>  (41) 
1.0

>  <smiles>  (41) 
CC(C)(C)C(=O)NC1CCC(C(=O)NC2(CCF)CCC2)CC1

>  <cmpd_id>  (41) 
ENAMINE:Z4469387250

>  <used_subnode>  (41) 
O=CNC1CCC1

>  <used_synthon>  (41) 
CC(C)(C)C(=O)N[Xe]

>  <ref_subnode>  (41) 
O=CNC1CCC1

>  <ref_synthon>  (41) 
N#CCC(=O)N[Xe]

>  <fragmentA>  (41) 
x0556_0A

>  <fragmentB>  (41) 
x0310_0A

>  <HA>  (41) 
23

>  <HBD>  (41) 
2

>  <HBA>  (41) 
2

>  <MW>  (41) 
326.236956452

>  <TPSA>  (41) 
58.2

>  <LogP>  (41) 
3.1060000000000008

>  <RBs>  (41) 
5

>  <G_bound>  (41) 
-6.0115029516759515

>  <G_unbound>  (41) 
1.4952728941761964

>  <deltaG>  (41) 
-7.506775845852148

>  <comRMSD>  (41) 
0.5932823136163575

>  <substructure_overlap_check>  (41) 
True

>  <sucos>  (41) 
0.5617540787400024

>  <interactions>  (41) 
Hydrophobic_TYR-90,Hydrophobic_PRO-107,Hydrophobic_HIS-21,Hydrophobic_TYR-89,HBDonor_SER-125,Hydrophobic_GLU-106,HBDonor_SER-105,Hydrophobic_HIS-104

>  <total_num_ints>  (41) 
8

>  <total_num_ints_nonhyd>  (41) 
2

>  <num_uniq_frag_ints>  (41) 
8

>  <num_repl_uniq_ints>  (41) 
7

>  <num_uniq_ints_lost>  (41) 
1

>  <num_new_uniq_ints>  (41) 
1

>  <int_check>  (41) 
True

>  <original SMILES>  (41) 
CC(C)(C)C(=O)NC1CCC(C(=O)NC2(CCF)CCC2)CC1

>  <original_name>  (41) 
x0556_0A-x0310_0A_4218_B1X

>  <ref_mols>  (41) 
Ax0556a,Ax0310a

>  <ref_pdb>  (41) 
Ax0310a

>  <rationale>  (41) 
FragNet: 1 round bioisosteric merging incl O=CNC1CCC1 and CC(C)(C)C(=O)N[Xe] replacing N#CCC(=O)N[Xe]

$$$$
x0556_0A-x0310_0A_1731_PXX
     RDKit          3D

 19 21  0  0  0  0  0  0  0  0999 V2000
    5.3270   12.0660   26.4860 O   0  0  0  0  0  0  0  0  0  0  0  0
    5.9890   11.0510   26.3030 C   0  0  0  0  0  0  0  0  0  0  0  0
    5.6870    9.8450   26.9420 N   0  0  0  0  0  0  0  0  0  0  0  0
    4.7120    9.6920   28.0500 C   0  0  2  0  0  0  0  0  0  0  0  0
    5.0090    8.4800   28.9580 C   0  0  0  0  0  0  0  0  0  0  0  0
    3.5020    8.1760   29.0450 C   0  0  1  0  0  0  0  0  0  0  0  0
    2.7730    8.8080   30.1630 N   0  0  0  0  0  0  0  0  0  0  0  0
    1.4560    9.1680   30.0990 C   0  0  0  0  0  0  0  0  0  0  0  0
    1.1430    9.7150   31.3210 C   0  0  0  0  0  0  0  0  0  0  0  0
    2.3400    9.6380   32.0560 C   0  0  0  0  0  0  0  0  0  0  0  0
    3.3340    9.0870   31.3560 N   0  0  0  0  0  0  0  0  0  0  0  0
    3.3850    8.9410   27.7180 C   0  0  0  0  0  0  0  0  0  0  0  0
    7.1760   11.0860   25.3490 C   0  0  0  0  0  0  0  0  0  0  0  0
    7.6090   12.3040   24.8350 C   0  0  0  0  0  0  0  0  0  0  0  0
    8.7060   12.3230   23.9620 C   0  0  0  0  0  0  0  0  0  0  0  0
    9.3240   11.1280   23.6380 C   0  0  0  0  0  0  0  0  0  0  0  0
   10.4060   11.0600   22.8130 O   0  0  0  0  0  0  0  0  0  0  0  0
    8.8290    9.9630   24.1840 C   0  0  0  0  0  0  0  0  0  0  0  0
    7.7700    9.9090   25.0350 N   0  0  0  0  0  0  0  0  0  0  0  0
  1  2  2  0
  2  3  1  0
  4  3  1  6
  4  5  1  0
  5  6  1  0
  6  7  1  1
  7  8  1  0
  8  9  2  0
  9 10  1  0
 10 11  2  0
  6 12  1  0
  2 13  1  0
 13 14  2  0
 14 15  1  0
 15 16  2  0
 16 17  1  0
 16 18  1  0
 18 19  2  0
 12  4  1  0
 19 13  1  0
 11  7  1  0
A    1
 O1 
A    2
 C1 
A    3
 N1 
A    4
 C2 
A    5
 C3 
A    6
 C4 
A    7
 N2 
A    8
 C5 
A    9
 C6 
A   10
 C7 
A   11
 N3 
A   12
 C8 
A   13
 C9 
A   14
 C10
A   15
 C11
A   16
 C12
A   17
 O2 
A   18
 C13
A   19
 N4 
M  END
>  <similarity>  (42) 
NA

>  <smiles>  (42) 
O=C(NC1CC(n2cccn2)C1)c1ccc(O)cn1

>  <cmpd_id>  (42) 
ENAMINE:Z4263506241

>  <used_subnode>  (42) 
NA

>  <used_synthon>  (42) 
NA

>  <ref_subnode>  (42) 
O=CNC1CCC1

>  <ref_synthon>  (42) 
[Xe]n1cccn1

>  <fragmentA>  (42) 
x0556_0A

>  <fragmentB>  (42) 
x0310_0A

>  <HA>  (42) 
19

>  <HBD>  (42) 
2

>  <HBA>  (42) 
5

>  <MW>  (42) 
258.111675688

>  <TPSA>  (42) 
80.04

>  <LogP>  (42) 
1.1172

>  <RBs>  (42) 
3

>  <G_bound>  (42) 
-3.0042188910820844

>  <G_unbound>  (42) 
0.6733121054723699

>  <deltaG>  (42) 
-3.677530996554454

>  <comRMSD>  (42) 
0.5607243302752866

>  <substructure_overlap_check>  (42) 
True

>  <sucos>  (42) 
0.5648362170333188

>  <interactions>  (42) 
Hydrophobic_PRO-107,Hydrophobic_HIS-104,Hydrophobic_GLU-106,HBDonor_SER-125,HBDonor_SER-105

>  <total_num_ints>  (42) 
5

>  <total_num_ints_nonhyd>  (42) 
2

>  <num_uniq_frag_ints>  (42) 
8

>  <num_repl_uniq_ints>  (42) 
5

>  <num_uniq_ints_lost>  (42) 
3

>  <num_new_uniq_ints>  (42) 
0

>  <int_check>  (42) 
True

>  <original SMILES>  (42) 
O=C(NC1CC(n2cccn2)C1)c1ccc(O)cn1

>  <original_name>  (42) 
x0556_0A-x0310_0A_1731_PXX

>  <ref_mols>  (42) 
Ax0556a,Ax0310a

>  <ref_pdb>  (42) 
Ax0310a

>  <rationale>  (42) 
FragNet: perfect merge incl O=CNC1CCC1,[Xe]n1cccn1

$$$$
x0365_0A-x0310_0A_1831_B1X
     RDKit          3D

 17 18  0  0  0  0  0  0  0  0999 V2000
    8.1560   14.9360   28.0760 N   0  0  0  0  0  0  0  0  0  0  0  0
    6.9250   14.0790   27.3090 S   0  0  0  0  0  6  0  0  0  0  0  0
    7.4060   13.6890   26.0100 O   0  0  0  0  0  0  0  0  0  0  0  0
    5.7520   14.9050   27.4790 O   0  0  0  0  0  0  0  0  0  0  0  0
    6.7720   12.6460   28.3680 C   0  0  0  0  0  0  0  0  0  0  0  0
    7.1850   12.8620   29.8090 C   0  0  0  0  0  0  0  0  0  0  0  0
    7.0520   11.6450   30.6790 C   0  0  0  0  0  0  0  0  0  0  0  0
    6.5800   10.4500   30.1550 C   0  0  0  0  0  0  0  0  0  0  0  0
    6.2060   10.2940   28.8080 C   0  0  0  0  0  0  0  0  0  0  0  0
    6.3020   11.3880   27.9050 C   0  0  0  0  0  0  0  0  0  0  0  0
    5.9120   11.1900   26.4480 C   0  0  0  0  0  0  0  0  0  0  0  0
    6.7550   10.1860   25.7970 N   0  0  0  0  0  0  0  0  0  0  0  0
    7.7760   10.4140   24.9130 C   0  0  0  0  0  0  0  0  0  0  0  0
    8.4590    9.4930   24.2520 N   0  0  0  0  0  0  0  0  0  0  0  0
    9.3640   10.1880   23.5050 C   0  0  0  0  0  0  0  0  0  0  0  0
    9.2060   11.5280   23.7290 C   0  0  0  0  0  0  0  0  0  0  0  0
    8.1900   11.6900   24.6300 O   0  0  0  0  0  0  0  0  0  0  0  0
  1  2  1  0
  2  3  2  0
  2  4  2  0
  2  5  1  0
  5  6  2  0
  6  7  1  0
  7  8  2  0
  8  9  1  0
  9 10  2  0
 10 11  1  0
 11 12  1  0
 12 13  1  0
 13 14  2  0
 14 15  1  0
 15 16  2  0
 16 17  1  0
 10  5  1  0
 17 13  1  0
A    1
 N1 
A    2
 S1 
A    3
 O1 
A    4
 O2 
A    5
 C1 
A    6
 C2 
A    7
 C3 
A    8
 C4 
A    9
 C5 
A   10
 C6 
A   11
 C7 
A   12
 N2 
A   13
 C8 
A   14
 N3 
A   15
 C9 
A   16
 C10
A   17
 O3 
M  END
>  <similarity>  (43) 
1.0

>  <smiles>  (43) 
NS(=O)(=O)c1ccccc1CNc1ncco1

>  <cmpd_id>  (43) 
ENAMINE:PV-003042908525

>  <used_subnode>  (43) 
NCc1ccccc1

>  <used_synthon>  (43) 
[Xe]c1ncco1

>  <ref_subnode>  (43) 
NCc1ccccc1

>  <ref_synthon>  (43) 
[Xe]n1cccn1

>  <fragmentA>  (43) 
x0365_0A

>  <fragmentB>  (43) 
x0310_0A

>  <HA>  (43) 
17

>  <HBD>  (43) 
2

>  <HBA>  (43) 
5

>  <MW>  (43) 
253.052112212

>  <TPSA>  (43) 
98.22

>  <LogP>  (43) 
0.9340999999999999

>  <RBs>  (43) 
4

>  <G_bound>  (43) 
-3.832222720247139

>  <G_unbound>  (43) 
0.6009409686419125

>  <deltaG>  (43) 
-4.433163688889051

>  <comRMSD>  (43) 
0.4106438378797056

>  <substructure_overlap_check>  (43) 
True

>  <sucos>  (43) 
0.5659187214468512

>  <interactions>  (43) 
Hydrophobic_PRO-107,Hydrophobic_GLU-106,HBAcceptor_SER-105,HBDonor_SER-105

>  <total_num_ints>  (43) 
4

>  <total_num_ints_nonhyd>  (43) 
2

>  <num_uniq_frag_ints>  (43) 
6

>  <num_repl_uniq_ints>  (43) 
3

>  <num_uniq_ints_lost>  (43) 
3

>  <num_new_uniq_ints>  (43) 
1

>  <int_check>  (43) 
True

>  <original SMILES>  (43) 
NS(=O)(=O)c1ccccc1CNc1ncco1

>  <original_name>  (43) 
x0365_0A-x0310_0A_1831_B1X

>  <ref_mols>  (43) 
Ax0365a,Ax0310a

>  <ref_pdb>  (43) 
Ax0310a

>  <rationale>  (43) 
FragNet: 1 round bioisosteric merging incl NCc1ccccc1 and [Xe]c1ncco1 replacing [Xe]n1cccn1

$$$$
x0365_0A-x0554_0A_8_PXX
     RDKit          3D

 23 25  0  0  0  0  0  0  0  0999 V2000
    8.9830   11.5940   32.0820 C   0  0  0  0  0  0  0  0  0  0  0  0
    7.7920   12.2770   31.7140 O   0  0  0  0  0  0  0  0  0  0  0  0
    7.2720   11.9430   30.4950 C   0  0  0  0  0  0  0  0  0  0  0  0
    6.8320   10.6510   30.1730 C   0  0  0  0  0  0  0  0  0  0  0  0
    6.3200   10.3790   28.9090 C   0  0  0  0  0  0  0  0  0  0  0  0
    6.2440   11.3930   27.9450 C   0  0  0  0  0  0  0  0  0  0  0  0
    5.7080   11.0850   26.5780 C   0  0  0  0  0  0  0  0  0  0  0  0
    6.6350   10.1600   25.9340 N   0  0  0  0  0  0  0  0  0  0  0  0
    7.6690   10.5120   25.0370 C   0  0  0  0  0  0  0  0  0  0  0  0
    8.3890    9.5480   24.3410 C   0  0  0  0  0  0  0  0  0  0  0  0
    9.4130    9.8040   23.4530 C   0  0  0  0  0  0  0  0  0  0  0  0
    9.7840   11.1090   23.2040 C   0  0  0  0  0  0  0  0  0  0  0  0
    9.0920   12.1360   23.8760 C   0  0  0  0  0  0  0  0  0  0  0  0
    9.1900   13.5480   23.8740 C   0  0  0  0  0  0  0  0  0  0  0  0
    8.2310   14.0300   24.7450 C   0  0  0  0  0  0  0  0  0  0  0  0
    7.5770   12.9770   25.2600 N   0  0  0  0  0  0  0  0  0  0  0  0
    8.0670   11.8100   24.7620 C   0  0  0  0  0  0  0  0  0  0  0  0
    6.6780   12.6910   28.2660 C   0  0  0  0  0  0  0  0  0  0  0  0
    7.1910   12.9850   29.5340 C   0  0  0  0  0  0  0  0  0  0  0  0
    7.6310   14.2370   29.9460 O   0  0  0  0  0  0  0  0  0  0  0  0
    8.7260   14.9670   29.3690 C   0  0  0  0  0  0  0  0  0  0  0  0
    8.4890   15.4260   27.9200 C   0  0  0  0  0  0  0  0  0  0  0  0
    9.7140   15.8530   27.3020 O   0  0  0  0  0  0  0  0  0  0  0  0
  1  2  1  0
  2  3  1  0
  3  4  2  0
  4  5  1  0
  5  6  2  0
  6  7  1  0
  7  8  1  0
  8  9  1  0
  9 10  2  0
 10 11  1  0
 11 12  2  0
 12 13  1  0
 13 14  1  0
 14 15  2  0
 15 16  1  0
 16 17  1  0
  6 18  1  0
 18 19  2  0
 19 20  1  0
 20 21  1  0
 21 22  1  0
 22 23  1  0
 19  3  1  0
 17  9  1  0
 17 13  2  0
A    1
 C1 
A    2
 O1 
A    3
 C2 
A    4
 C3 
A    5
 C4 
A    6
 C5 
A    7
 C6 
A    8
 N1 
A    9
 C7 
A   10
 C8 
A   11
 C9 
A   12
 C10
A   13
 C11
A   14
 C12
A   15
 C13
A   16
 N2 
A   17
 C14
A   18
 C15
A   19
 C16
A   20
 O2 
A   21
 C17
A   22
 C18
A   23
 O3 
M  END
>  <similarity>  (44) 
NA

>  <smiles>  (44) 
COc1ccc(CNc2cccc3cc[nH]c23)cc1OCCO

>  <cmpd_id>  (44) 
ENAMINE:PV-002433268736

>  <used_subnode>  (44) 
NA

>  <used_synthon>  (44) 
NA

>  <ref_subnode>  (44) 
NCc1ccccc1

>  <ref_synthon>  (44) 
[Xe]c1cccc2cc[nH]c12

>  <fragmentA>  (44) 
x0365_0A

>  <fragmentB>  (44) 
x0554_0A

>  <HA>  (44) 
23

>  <HBD>  (44) 
3

>  <HBA>  (44) 
4

>  <MW>  (44) 
312.14739249999997

>  <TPSA>  (44) 
66.51

>  <LogP>  (44) 
3.1597000000000013

>  <RBs>  (44) 
7

>  <G_bound>  (44) 
-7.471200130582661

>  <G_unbound>  (44) 
0.2917248576192269

>  <deltaG>  (44) 
-7.762924988201887

>  <comRMSD>  (44) 
1.1843850791900503

>  <substructure_overlap_check>  (44) 
True

>  <sucos>  (44) 
0.5663354251031533

>  <interactions>  (44) 
Hydrophobic_PRO-107,Hydrophobic_GLU-106,HBAcceptor_GLU-88,HBDonor_SER-105

>  <total_num_ints>  (44) 
4

>  <total_num_ints_nonhyd>  (44) 
2

>  <num_uniq_frag_ints>  (44) 
7

>  <num_repl_uniq_ints>  (44) 
3

>  <num_uniq_ints_lost>  (44) 
4

>  <num_new_uniq_ints>  (44) 
1

>  <int_check>  (44) 
True

>  <original SMILES>  (44) 
COc1ccc(CNc2cccc3cc[nH]c23)cc1OCCO

>  <original_name>  (44) 
x0365_0A-x0554_0A_8_PXX

>  <ref_mols>  (44) 
Ax0365a,Ax0554a

>  <ref_pdb>  (44) 
Ax0310a

>  <rationale>  (44) 
FragNet: perfect merge incl NCc1ccccc1,[Xe]c1cccc2cc[nH]c12

$$$$
x0556_0A-x0310_0A_1580_PXX
     RDKit          3D

 22 24  0  0  0  0  0  0  0  0999 V2000
   11.2240   13.0380   23.2600 C   0  0  0  0  0  0  0  0  0  0  0  0
    9.8350   13.3830   23.7690 C   0  0  0  0  0  0  0  0  0  0  0  0
    9.1960   14.0860   22.7940 F   0  0  0  0  0  0  0  0  0  0  0  0
    9.9910   14.2350   24.8220 F   0  0  0  0  0  0  0  0  0  0  0  0
    9.0610   12.1670   24.1670 C   0  0  0  0  0  0  0  0  0  0  0  0
    9.4250   10.9240   23.6560 C   0  0  0  0  0  0  0  0  0  0  0  0
    8.7840    9.7940   23.9790 N   0  0  0  0  0  0  0  0  0  0  0  0
    7.7540    9.9400   24.8340 C   0  0  0  0  0  0  0  0  0  0  0  0
    7.2890   11.0980   25.4030 C   0  0  0  0  0  0  0  0  0  0  0  0
    6.0950   11.1070   26.3520 C   0  0  0  0  0  0  0  0  0  0  0  0
    5.4890   12.1470   26.5820 O   0  0  0  0  0  0  0  0  0  0  0  0
    5.7120    9.8820   26.9350 N   0  0  0  0  0  0  0  0  0  0  0  0
    4.7210    9.7440   28.0500 C   0  0  2  0  0  0  0  0  0  0  0  0
    5.0290    8.5440   28.9710 C   0  0  0  0  0  0  0  0  0  0  0  0
    3.5320    8.1810   29.0350 C   0  0  1  0  0  0  0  0  0  0  0  0
    2.7660    8.7460   30.1740 N   0  0  0  0  0  0  0  0  0  0  0  0
    1.4610    9.1460   30.0700 C   0  0  0  0  0  0  0  0  0  0  0  0
    1.1010    9.6050   31.3150 C   0  0  0  0  0  0  0  0  0  0  0  0
    2.2570    9.4410   32.1000 C   0  0  0  0  0  0  0  0  0  0  0  0
    3.2740    8.9180   31.4080 N   0  0  0  0  0  0  0  0  0  0  0  0
    3.3900    8.9940   27.7400 C   0  0  0  0  0  0  0  0  0  0  0  0
    7.9740   12.2590   25.0540 C   0  0  0  0  0  0  0  0  0  0  0  0
  1  2  1  0
  2  3  1  0
  2  4  1  0
  2  5  1  0
  5  6  2  0
  6  7  1  0
  7  8  2  0
  8  9  1  0
  9 10  1  0
 10 11  2  0
 10 12  1  0
 13 12  1  6
 13 14  1  0
 14 15  1  0
 15 16  1  1
 16 17  1  0
 17 18  2  0
 18 19  1  0
 19 20  2  0
 15 21  1  0
  9 22  2  0
 22  5  1  0
 21 13  1  0
 20 16  1  0
A    1
 C1 
A    2
 C2 
A    3
 F1 
A    4
 F2 
A    5
 C3 
A    6
 C4 
A    7
 N1 
A    8
 C5 
A    9
 C6 
A   10
 C7 
A   11
 O1 
A   12
 N2 
A   13
 C8 
A   14
 C9 
A   15
 C10
A   16
 N3 
A   17
 C11
A   18
 C12
A   19
 C13
A   20
 N4 
A   21
 C14
A   22
 C15
M  END
>  <similarity>  (45) 
NA

>  <smiles>  (45) 
CC(F)(F)c1cncc(C(=O)NC2CC(n3cccn3)C2)c1

>  <cmpd_id>  (45) 
ENAMINE:Z4267759642

>  <used_subnode>  (45) 
NA

>  <used_synthon>  (45) 
NA

>  <ref_subnode>  (45) 
O=CNC1CCC1

>  <ref_synthon>  (45) 
[Xe]n1cccn1

>  <fragmentA>  (45) 
x0556_0A

>  <fragmentB>  (45) 
x0310_0A

>  <HA>  (45) 
22

>  <HBD>  (45) 
1

>  <HBA>  (45) 
4

>  <MW>  (45) 
306.129217572

>  <TPSA>  (45) 
59.81

>  <LogP>  (45) 
2.5233000000000008

>  <RBs>  (45) 
4

>  <G_bound>  (45) 
-4.945192715558768

>  <G_unbound>  (45) 
0.7173705907842366

>  <deltaG>  (45) 
-5.662563306343005

>  <comRMSD>  (45) 
0.5510533723578837

>  <substructure_overlap_check>  (45) 
True

>  <sucos>  (45) 
0.569537160244752

>  <interactions>  (45) 
Hydrophobic_PRO-107,Hydrophobic_HIS-104,Hydrophobic_GLU-106,HBAcceptor_SER-105,HBDonor_SER-105

>  <total_num_ints>  (45) 
5

>  <total_num_ints_nonhyd>  (45) 
2

>  <num_uniq_frag_ints>  (45) 
8

>  <num_repl_uniq_ints>  (45) 
4

>  <num_uniq_ints_lost>  (45) 
4

>  <num_new_uniq_ints>  (45) 
1

>  <int_check>  (45) 
True

>  <original SMILES>  (45) 
CC(F)(F)c1cncc(C(=O)NC2CC(n3cccn3)C2)c1

>  <original_name>  (45) 
x0556_0A-x0310_0A_1580_PXX

>  <ref_mols>  (45) 
Ax0556a,Ax0310a

>  <ref_pdb>  (45) 
Ax0310a

>  <rationale>  (45) 
FragNet: perfect merge incl O=CNC1CCC1,[Xe]n1cccn1

$$$$
x0556_0A-x0719_1A_1644_B1X
     RDKit          3D

 22 23  0  0  0  0  0  0  0  0999 V2000
    6.1450   15.5040   22.3930 N   0  0  0  0  0  0  0  0  0  0  0  0
    7.1570   14.1950   22.5910 S   0  0  0  0  0  6  0  0  0  0  0  0
    8.5150   14.5680   22.2760 O   0  0  0  0  0  0  0  0  0  0  0  0
    6.5070   13.2250   21.8010 O   0  0  0  0  0  0  0  0  0  0  0  0
    6.8580   13.9760   24.3540 C   0  0  0  0  0  0  0  0  0  0  0  0
    7.7670   12.9530   25.0720 C   0  0  2  0  0  0  0  0  0  0  0  0
    9.1440   12.9010   24.3710 C   0  0  0  0  0  0  0  0  0  0  0  0
    9.2030   11.8170   23.3420 C   0  0  0  0  0  0  0  0  0  0  0  0
    8.8960   10.4340   23.9050 C   0  0  0  0  0  0  0  0  0  0  0  0
    7.8480   10.3920   25.0180 C   0  0  0  0  0  0  0  0  0  0  0  0
    7.0770   11.5980   25.2880 N   0  0  0  0  0  0  0  0  0  0  0  0
    5.9780   11.3960   26.1830 C   0  0  0  0  0  0  0  0  0  0  0  0
    5.1740   12.2950   26.3790 O   0  0  0  0  0  0  0  0  0  0  0  0
    5.8050   10.1600   26.8550 N   0  0  0  0  0  0  0  0  0  0  0  0
    4.8210    9.8690   28.0150 C   0  0  0  0  0  0  0  0  0  0  0  0
    4.5680   11.1340   28.8410 C   0  0  0  0  0  0  0  0  0  0  0  0
    5.6850   11.8720   29.0290 F   0  0  0  0  0  0  0  0  0  0  0  0
    4.0860   10.7980   30.0610 F   0  0  0  0  0  0  0  0  0  0  0  0
    3.6380   11.9190   28.2440 F   0  0  0  0  0  0  0  0  0  0  0  0
    3.5100    9.0590   27.7240 C   0  0  0  0  0  0  0  0  0  0  0  0
    3.6970    8.3390   29.0570 C   0  0  0  0  0  0  0  0  0  0  0  0
    5.1860    8.6430   28.8870 C   0  0  0  0  0  0  0  0  0  0  0  0
  1  2  1  0
  2  3  2  0
  2  4  2  0
  2  5  1  0
  6  5  1  6
  6  7  1  0
  7  8  1  0
  8  9  1  0
  9 10  1  0
 10 11  1  0
 11 12  1  0
 12 13  2  0
 12 14  1  0
 14 15  1  0
 15 16  1  0
 16 17  1  0
 16 18  1  0
 16 19  1  0
 15 20  1  0
 20 21  1  0
 21 22  1  0
 11  6  1  0
 22 15  1  0
A    1
 N1 
A    2
 S1 
A    3
 O1 
A    4
 O2 
A    5
 C1 
A    6
 C2 
A    7
 C3 
A    8
 C4 
A    9
 C5 
A   10
 C6 
A   11
 N2 
A   12
 C7 
A   13
 O3 
A   14
 N3 
A   15
 C8 
A   16
 C9 
A   17
 F1 
A   18
 F2 
A   19
 F3 
A   20
 C10
A   21
 C11
A   22
 C12
M  END
>  <similarity>  (46) 
1.0

>  <smiles>  (46) 
NS(=O)(=O)CC1CCCCN1C(=O)NC1(C(F)(F)F)CCC1

>  <cmpd_id>  (46) 
ENAMINE:Z3593835265

>  <used_subnode>  (46) 
O=CNC1CCC1

>  <used_synthon>  (46) 
NS(=O)(=O)C[Xe]

>  <ref_subnode>  (46) 
O=CNC1CCC1

>  <ref_synthon>  (46) 
CC([Xe])CS(N)(=O)=O

>  <fragmentA>  (46) 
x0556_0A

>  <fragmentB>  (46) 
x0719_1A

>  <HA>  (46) 
22

>  <HBD>  (46) 
2

>  <HBA>  (46) 
3

>  <MW>  (46) 
343.11774716

>  <TPSA>  (46) 
92.5

>  <LogP>  (46) 
1.324

>  <RBs>  (46) 
3

>  <G_bound>  (46) 
-1.0778114564584325

>  <G_unbound>  (46) 
2.601094942127484

>  <deltaG>  (46) 
-3.6789063985859163

>  <comRMSD>  (46) 
0.7007448644210164

>  <substructure_overlap_check>  (46) 
True

>  <sucos>  (46) 
0.5697565982039311

>  <interactions>  (46) 
Hydrophobic_PRO-107,HBAcceptor_GLY-127,Hydrophobic_GLU-106,HBDonor_SER-105,Hydrophobic_HIS-104

>  <total_num_ints>  (46) 
5

>  <total_num_ints_nonhyd>  (46) 
2

>  <num_uniq_frag_ints>  (46) 
6

>  <num_repl_uniq_ints>  (46) 
5

>  <num_uniq_ints_lost>  (46) 
1

>  <num_new_uniq_ints>  (46) 
0

>  <int_check>  (46) 
True

>  <original SMILES>  (46) 
NS(=O)(=O)CC1CCCCN1C(=O)NC1(C(F)(F)F)CCC1

>  <original_name>  (46) 
x0556_0A-x0719_1A_1644_B1X

>  <ref_mols>  (46) 
Ax0556a,Ax0719a

>  <ref_pdb>  (46) 
Ax0310a

>  <rationale>  (46) 
FragNet: 1 round bioisosteric merging incl O=CNC1CCC1 and NS(=O)(=O)C[Xe] replacing CC([Xe])CS(N)(=O)=O

$$$$
x0556_0A-x0310_0A_2396_B1X_rgrp-0
     RDKit          3D

 22 24  0  0  0  0  0  0  0  0999 V2000
    9.8480    9.2670   23.0380 C   0  0  0  0  0  0  0  0  0  0  0  0
    9.0040   10.1160   23.8660 N   0  0  0  0  0  0  0  0  0  0  0  0
    9.1700   11.5190   23.7990 C   0  0  0  0  0  0  0  0  0  0  0  0
    8.1830   12.1410   24.7250 C   0  0  0  0  0  0  0  0  0  0  0  0
    7.4530   10.9430   25.3120 C   0  0  0  0  0  0  0  0  0  0  0  0
    6.3050   11.0750   26.3350 C   0  0  0  0  0  0  0  0  0  0  0  0
    5.6340   12.0970   26.4240 O   0  0  0  0  0  0  0  0  0  0  0  0
    6.0910    9.9910   27.1500 N   0  0  0  0  0  0  0  0  0  0  0  0
    5.0070    9.9490   27.9460 C   0  0  2  0  0  0  0  0  0  0  0  0
    5.0210    9.0310   29.1500 C   0  0  0  0  0  0  0  0  0  0  0  0
    4.1890    7.8830   28.6130 C   0  0  1  0  0  0  0  0  0  0  0  0
    2.9790    7.3670   28.9750 N   0  0  0  0  0  0  0  0  0  0  0  0
    1.9870    7.0850   27.9480 C   0  0  0  0  0  0  0  0  0  0  0  0
    1.7430    7.8300   26.9830 O   0  0  0  0  0  0  0  0  0  0  0  0
    1.2090    5.7660   28.1200 C   0  0  0  0  0  0  0  0  0  0  0  0
    1.3540    4.6790   27.1180 C   0  0  0  0  0  0  0  0  0  0  0  0
    0.6600    3.4570   27.1800 C   0  0  0  0  0  0  0  0  0  0  0  0
   -0.1680    3.3470   28.2760 C   0  0  0  0  0  0  0  0  0  0  0  0
   -0.2660    4.5100   29.2910 C   0  0  0  0  0  0  0  0  0  0  0  0
    0.3920    5.6510   29.1980 N   0  0  0  0  0  0  0  0  0  0  0  0
    3.9140    8.9300   27.4820 C   0  0  0  0  0  0  0  0  0  0  0  0
    7.9970    9.7670   24.7600 N   0  0  0  0  0  0  0  0  0  0  0  0
  1  2  1  0
  2  3  1  0
  3  4  2  0
  4  5  1  0
  5  6  1  0
  6  7  2  0
  6  8  1  0
  9  8  1  6
  9 10  1  0
 10 11  1  0
 11 12  1  1
 12 13  1  0
 13 14  2  0
 13 15  1  0
 15 16  2  0
 16 17  1  0
 17 18  2  0
 18 19  1  0
 19 20  2  0
 11 21  1  0
  5 22  2  0
 22  2  1  0
 21  9  1  0
 20 15  1  0
A    1
 C1 
A    2
 N1 
A    3
 C2 
A    4
 C3 
A    5
 C4 
A    6
 C5 
A    7
 O1 
A    8
 N2 
A    9
 C6 
A   10
 C7 
A   11
 C8 
A   12
 N3 
A   13
 C9 
A   14
 O2 
A   15
 C10
A   16
 C11
A   17
 C12
A   18
 C13
A   19
 C14
A   20
 N4 
A   21
 C15
A   22
 N5 
M  END
>  <similarity>  (47) 
1.0

>  <smiles>  (47) 
Cn1ccc(C(=O)NC2CC(NC(=O)c3ccccn3)C2)n1

>  <cmpd_id>  (47) 
ENAMINE:PV-000439333607,ENAMINE:PV-000444949091

>  <used_subnode>  (47) 
O=CNC1CCC1

>  <used_synthon>  (47) 
[Xe]c1cc[nH]n1

>  <ref_subnode>  (47) 
O=CNC1CCC1

>  <ref_synthon>  (47) 
[Xe]c1cn[nH]c1

>  <fragmentA>  (47) 
x0556_0A

>  <fragmentB>  (47) 
x0310_0A

>  <HA>  (47) 
22

>  <HBD>  (47) 
2

>  <HBA>  (47) 
5

>  <MW>  (47) 
299.13822478400004

>  <TPSA>  (47) 
88.91000000000001

>  <LogP>  (47) 
0.5058999999999989

>  <RBs>  (47) 
4

>  <G_bound>  (47) 
-7.704607561185441

>  <G_unbound>  (47) 
0.7765969960606083

>  <deltaG>  (47) 
-8.48120455724605

>  <comRMSD>  (47) 
0.3772927789889651

>  <substructure_overlap_check>  (47) 
True

>  <sucos>  (47) 
0.571146997019048

>  <interactions>  (47) 
Hydrophobic_GLU-106,Hydrophobic_PRO-107,HBAcceptor_GLY-130,Hydrophobic_HIS-104,HBDonor_SER-105

>  <total_num_ints>  (47) 
5

>  <total_num_ints_nonhyd>  (47) 
2

>  <num_uniq_frag_ints>  (47) 
8

>  <num_repl_uniq_ints>  (47) 
4

>  <num_uniq_ints_lost>  (47) 
4

>  <num_new_uniq_ints>  (47) 
1

>  <int_check>  (47) 
True

>  <original SMILES>  (47) 
Cn1ccc(C(=O)NC2CC(NC(=O)c3ccccn3)C2)n1

>  <original_name>  (47) 
x0556_0A-x0310_0A_2396_B1X_rgrp-0

>  <ref_mols>  (47) 
Ax0556a,Ax0310a

>  <ref_pdb>  (47) 
Ax0310a

>  <rationale>  (47) 
FragNet: 1 round bioisosteric merging incl O=CNC1CCC1 and [Xe]c1cc[nH]n1 replacing [Xe]c1cn[nH]c1

$$$$
x0365_0A-x0310_0A_1865_B1X_rgrp-0
     RDKit          3D

 22 24  0  0  0  0  0  0  0  0999 V2000
   10.6610   12.5600   22.8970 C   0  0  0  0  0  0  0  0  0  0  0  0
    9.5900   11.7910   23.6270 C   0  0  0  0  0  0  0  0  0  0  0  0
    8.6810   12.6750   24.4050 C   0  0  0  0  0  0  0  0  0  0  0  0
    7.5710   12.0540   25.1890 C   0  0  0  0  0  0  0  0  0  0  0  0
    7.4900   10.5740   25.1060 C   0  0  0  0  0  0  0  0  0  0  0  0
    6.4390   10.0140   25.8420 N   0  0  0  0  0  0  0  0  0  0  0  0
    5.6320   10.9980   26.6090 C   0  0  0  0  0  0  0  0  0  0  0  0
    6.2100   11.3150   27.9780 C   0  0  0  0  0  0  0  0  0  0  0  0
    6.2100   10.0870   28.8870 C   0  0  0  0  0  0  0  0  0  0  0  0
    6.7810   10.3090   30.2900 C   0  0  0  0  0  0  0  0  0  0  0  0
    7.2720   11.7350   30.5870 C   0  0  0  0  0  0  0  0  0  0  0  0
    7.8390   12.0180   31.9420 C   0  0  0  0  0  0  0  0  0  0  0  0
    9.0970   12.8790   31.9690 C   0  0  0  0  0  0  0  0  0  0  0  0
    9.6080   13.1150   33.3990 C   0  0  0  0  0  0  0  0  0  0  0  0
    9.0040   12.6130   34.5000 N   0  0  0  0  0  0  0  0  0  0  0  0
    7.8870   11.8570   34.3450 C   0  0  0  0  0  0  0  0  0  0  0  0
    7.2870   11.5420   33.1320 C   0  0  0  0  0  0  0  0  0  0  0  0
    7.2010   12.7650   29.6370 C   0  0  0  0  0  0  0  0  0  0  0  0
    6.6840   12.5570   28.3700 C   0  0  0  0  0  0  0  0  0  0  0  0
    6.6530   13.5960   27.5230 F   0  0  0  0  0  0  0  0  0  0  0  0
    8.3730    9.8200   24.3570 N   0  0  0  0  0  0  0  0  0  0  0  0
    9.3750   10.4210   23.6530 C   0  0  0  0  0  0  0  0  0  0  0  0
  1  2  1  0
  2  3  2  0
  3  4  1  0
  4  5  2  0
  5  6  1  0
  6  7  1  0
  7  8  1  0
  8  9  2  0
  9 10  1  0
 10 11  2  0
 11 12  1  0
 12 13  2  0
 13 14  1  0
 14 15  2  0
 15 16  1  0
 16 17  2  0
 11 18  1  0
 18 19  2  0
 19 20  1  0
  5 21  1  0
 21 22  2  0
 22  2  1  0
 19  8  1  0
 17 12  1  0
A    1
 C1 
A    2
 C2 
A    3
 C3 
A    4
 C4 
A    5
 C5 
A    6
 N1 
A    7
 C6 
A    8
 C7 
A    9
 C8 
A   10
 C9 
A   11
 C10
A   12
 C11
A   13
 C12
A   14
 C13
A   15
 N2 
A   16
 C14
A   17
 C15
A   18
 C16
A   19
 C17
A   20
 F1 
A   21
 N3 
A   22
 C18
M  END
>  <similarity>  (48) 
1.0

>  <smiles>  (48) 
Cc1ccc(NCc2ccc(-c3ccncc3)cc2F)nc1

>  <cmpd_id>  (48) 
ENAMINE:Z1498772036

>  <used_subnode>  (48) 
NCc1ccccc1

>  <used_synthon>  (48) 
[Xe]c1ccncc1

>  <ref_subnode>  (48) 
NCc1ccccc1

>  <ref_synthon>  (48) 
[Xe]n1cccn1

>  <fragmentA>  (48) 
x0365_0A

>  <fragmentB>  (48) 
x0310_0A

>  <HA>  (48) 
22

>  <HBD>  (48) 
1

>  <HBA>  (48) 
3

>  <MW>  (48) 
293.132825732

>  <TPSA>  (48) 
37.81

>  <LogP>  (48) 
4.203220000000003

>  <RBs>  (48) 
4

>  <G_bound>  (48) 
-6.151880775495007

>  <G_unbound>  (48) 
0.35873609543539264

>  <deltaG>  (48) 
-6.5106168709303995

>  <comRMSD>  (48) 
0.22776329858371366

>  <substructure_overlap_check>  (48) 
True

>  <sucos>  (48) 
0.5711957847803432

>  <interactions>  (48) 
Hydrophobic_GLU-106,Hydrophobic_PRO-107,HBAcceptor_SER-105,HBDonor_SER-105

>  <total_num_ints>  (48) 
4

>  <total_num_ints_nonhyd>  (48) 
2

>  <num_uniq_frag_ints>  (48) 
6

>  <num_repl_uniq_ints>  (48) 
3

>  <num_uniq_ints_lost>  (48) 
3

>  <num_new_uniq_ints>  (48) 
1

>  <int_check>  (48) 
True

>  <original SMILES>  (48) 
Cc1ccc(NCc2ccc(-c3ccncc3)cc2F)nc1

>  <original_name>  (48) 
x0365_0A-x0310_0A_1865_B1X_rgrp-0

>  <ref_mols>  (48) 
Ax0365a,Ax0310a

>  <ref_pdb>  (48) 
Ax0310a

>  <rationale>  (48) 
FragNet: 1 round bioisosteric merging incl NCc1ccccc1 and [Xe]c1ccncc1 replacing [Xe]n1cccn1

$$$$
x0365_0A-x0556_0A_207_B1X_rgrp-0
     RDKit          3D

 24 26  0  0  0  0  0  0  0  0999 V2000
   10.0160    9.2810   22.9610 C   0  0  0  0  0  0  0  0  0  0  0  0
    9.1960   10.2200   23.6850 N   0  0  0  0  0  0  0  0  0  0  0  0
    9.3760   11.6080   23.5740 C   0  0  0  0  0  0  0  0  0  0  0  0
    8.4970   12.2710   24.3140 C   0  0  0  0  0  0  0  0  0  0  0  0
    7.7190   11.2330   24.9270 C   0  0  0  0  0  0  0  0  0  0  0  0
    6.5940   11.4820   25.8360 C   0  0  0  0  0  0  0  0  0  0  0  0
    6.2660   12.6280   26.1310 O   0  0  0  0  0  0  0  0  0  0  0  0
    5.8930   10.3950   26.3480 N   0  0  0  0  0  0  0  0  0  0  0  0
    5.0690   10.6450   27.5340 C   0  0  0  0  0  0  0  0  0  0  0  0
    6.0290   10.9580   28.6690 C   0  0  0  0  0  0  0  0  0  0  0  0
    6.6450   12.3420   28.7450 C   0  0  0  0  0  0  0  0  0  0  0  0
    7.6280   12.6530   29.8540 C   0  0  0  0  0  0  0  0  0  0  0  0
    7.9130   11.5010   30.8190 C   0  0  0  0  0  0  0  0  0  0  0  0
    8.8950   11.7840   31.8940 C   0  0  0  0  0  0  0  0  0  0  0  0
    9.9340   10.7500   31.8270 N   0  0  0  0  0  0  0  0  0  0  0  0
   11.3230   11.2130   31.6600 C   0  0  1  0  0  0  0  0  0  0  0  0
   12.0400   11.4860   32.9120 C   0  0  0  0  0  0  0  0  0  0  0  0
   13.3290   11.6450   32.4330 C   0  0  0  0  0  0  0  0  0  0  0  0
   13.4840   10.4900   31.5970 N   0  0  0  0  0  0  0  0  0  0  0  0
   12.2920   10.2350   30.9710 C   0  0  0  0  0  0  0  0  0  0  0  0
   12.1140    9.3990   30.0830 O   0  0  0  0  0  0  0  0  0  0  0  0
    7.2740   10.2540   30.6660 C   0  0  0  0  0  0  0  0  0  0  0  0
    6.3630    9.9950   29.6260 C   0  0  0  0  0  0  0  0  0  0  0  0
    8.1700    9.9720   24.5400 N   0  0  0  0  0  0  0  0  0  0  0  0
  1  2  1  0
  2  3  1  0
  3  4  2  0
  4  5  1  0
  5  6  1  0
  6  7  2  0
  6  8  1  0
  8  9  1  0
  9 10  1  0
 10 11  2  0
 11 12  1  0
 12 13  2  0
 13 14  1  0
 14 15  1  0
 16 15  1  1
 16 17  1  0
 17 18  1  0
 18 19  1  0
 19 20  1  0
 20 21  2  0
 13 22  1  0
 22 23  2  0
  5 24  2  0
 24  2  1  0
 23 10  1  0
 20 16  1  0
A    1
 C1 
A    2
 N1 
A    3
 C2 
A    4
 C3 
A    5
 C4 
A    6
 C5 
A    7
 O1 
A    8
 N2 
A    9
 C6 
A   10
 C7 
A   11
 C8 
A   12
 C9 
A   13
 C10
A   14
 C11
A   15
 N3 
A   16
 C12
A   17
 C13
A   18
 C14
A   19
 N4 
A   20
 C15
A   21
 O2 
A   22
 C16
A   23
 C17
A   24
 N5 
M  END
>  <similarity>  (49) 
1.0

>  <smiles>  (49) 
Cn1ccc(C(=O)NCc2ccc(CNC3CCNC3=O)cc2)n1

>  <cmpd_id>  (49) 
ENAMINE:PV-000161712253

>  <used_subnode>  (49) 
NCc1ccccc1

>  <used_synthon>  (49) 
[Xe]c1cc[nH]n1

>  <ref_subnode>  (49) 
NCc1ccccc1

>  <ref_synthon>  (49) 
[Xe]c1cn[nH]c1

>  <fragmentA>  (49) 
x0365_0A

>  <fragmentB>  (49) 
x0556_0A

>  <HA>  (49) 
24

>  <HBD>  (49) 
3

>  <HBA>  (49) 
5

>  <MW>  (49) 
327.16952491200004

>  <TPSA>  (49) 
88.05

>  <LogP>  (49) 
0.3282000000000003

>  <RBs>  (49) 
6

>  <G_bound>  (49) 
-8.472159832561223

>  <G_unbound>  (49) 
0.4875556707381992

>  <deltaG>  (49) 
-8.959715503299423

>  <comRMSD>  (49) 
0.1944640010554066

>  <substructure_overlap_check>  (49) 
True

>  <sucos>  (49) 
0.5723603916382032

>  <interactions>  (49) 
Hydrophobic_GLU-106,Hydrophobic_PRO-107,HBAcceptor_GLY-108,HBDonor_SER-105

>  <total_num_ints>  (49) 
4

>  <total_num_ints_nonhyd>  (49) 
2

>  <num_uniq_frag_ints>  (49) 
5

>  <num_repl_uniq_ints>  (49) 
3

>  <num_uniq_ints_lost>  (49) 
2

>  <num_new_uniq_ints>  (49) 
1

>  <int_check>  (49) 
True

>  <original SMILES>  (49) 
Cn1ccc(C(=O)NCc2ccc(CNC3CCNC3=O)cc2)n1

>  <original_name>  (49) 
x0365_0A-x0556_0A_207_B1X_rgrp-0

>  <ref_mols>  (49) 
Ax0365a,Ax0556a

>  <ref_pdb>  (49) 
Ax0310a

>  <rationale>  (49) 
FragNet: 1 round bioisosteric merging incl NCc1ccccc1 and [Xe]c1cc[nH]n1 replacing [Xe]c1cn[nH]c1

$$$$
x0365_0A-x0310_0A_1706_B1X_rgrp-1
     RDKit          3D

 19 20  0  0  0  0  0  0  0  0999 V2000
   10.5480   12.3530   22.8930 C   0  0  0  0  0  0  0  0  0  0  0  0
    9.5130   11.7040   23.6490 C   0  0  0  0  0  0  0  0  0  0  0  0
    8.6810   12.6970   24.3970 C   0  0  0  0  0  0  0  0  0  0  0  0
    7.6030   12.0240   25.1980 C   0  0  0  0  0  0  0  0  0  0  0  0
    7.4370   10.6480   25.2100 C   0  0  0  0  0  0  0  0  0  0  0  0
    6.3940   10.1400   26.0010 N   0  0  0  0  0  0  0  0  0  0  0  0
    5.5430   10.8620   26.8130 C   0  0  0  0  0  0  0  0  0  0  0  0
    6.1290   11.1510   28.0320 C   0  0  0  0  0  0  0  0  0  0  0  0
    6.2130   10.0510   29.0400 C   0  0  0  0  0  0  0  0  0  0  0  0
    6.8630   10.3460   30.3900 C   0  0  0  0  0  0  0  0  0  0  0  0
    7.3590   11.7820   30.5350 C   0  0  0  0  0  0  0  0  0  0  0  0
    8.1300   12.2200   32.0710 S   0  0  0  0  0  6  0  0  0  0  0  0
    7.7000   13.9270   32.2730 C   0  0  0  0  0  0  0  0  0  0  0  0
    7.4710   11.4630   33.1200 O   0  0  0  0  0  0  0  0  0  0  0  0
    9.5650   12.1290   31.8820 O   0  0  0  0  0  0  0  0  0  0  0  0
    7.2300   12.7440   29.5280 C   0  0  0  0  0  0  0  0  0  0  0  0
    6.6310   12.4350   28.3110 C   0  0  0  0  0  0  0  0  0  0  0  0
    8.3150    9.7500   24.4260 N   0  0  0  0  0  0  0  0  0  0  0  0
    9.2920   10.3310   23.7000 C   0  0  0  0  0  0  0  0  0  0  0  0
  1  2  1  0
  2  3  2  0
  3  4  1  0
  4  5  2  0
  5  6  1  0
  6  7  1  0
  7  8  1  0
  8  9  2  0
  9 10  1  0
 10 11  2  0
 11 12  1  0
 12 13  1  0
 12 14  2  0
 12 15  2  0
 11 16  1  0
 16 17  2  0
  5 18  1  0
 18 19  2  0
 19  2  1  0
 17  8  1  0
A    1
 C1 
A    2
 C2 
A    3
 C3 
A    4
 C4 
A    5
 C5 
A    6
 N1 
A    7
 C6 
A    8
 C7 
A    9
 C8 
A   10
 C9 
A   11
 C10
A   12
 S1 
A   13
 C11
A   14
 O1 
A   15
 O2 
A   16
 C12
A   17
 C13
A   18
 N2 
A   19
 C14
M  END
>  <similarity>  (50) 
1.0

>  <smiles>  (50) 
Cc1ccc(NCc2ccc(S(C)(=O)=O)cc2)nc1

>  <cmpd_id>  (50) 
ENAMINE:Z751929306

>  <used_subnode>  (50) 
NCc1ccccc1

>  <used_synthon>  (50) 
[Xe]c1ccccn1

>  <ref_subnode>  (50) 
NCc1ccccc1

>  <ref_synthon>  (50) 
[Xe]n1cccn1

>  <fragmentA>  (50) 
x0365_0A

>  <fragmentB>  (50) 
x0310_0A

>  <HA>  (50) 
19

>  <HBD>  (50) 
1

>  <HBA>  (50) 
4

>  <MW>  (50) 
276.093248752

>  <TPSA>  (50) 
59.06

>  <LogP>  (50) 
2.4056200000000008

>  <RBs>  (50) 
4

>  <G_bound>  (50) 
-7.210204177925124

>  <G_unbound>  (50) 
0.1698864149213144

>  <deltaG>  (50) 
-7.380090592846438

>  <comRMSD>  (50) 
0.20187200729688148

>  <substructure_overlap_check>  (50) 
True

>  <sucos>  (50) 
0.5754036764048064

>  <interactions>  (50) 
Hydrophobic_GLU-106,Hydrophobic_PRO-107,HBAcceptor_SER-105,HBDonor_SER-105

>  <total_num_ints>  (50) 
4

>  <total_num_ints_nonhyd>  (50) 
2

>  <num_uniq_frag_ints>  (50) 
6

>  <num_repl_uniq_ints>  (50) 
3

>  <num_uniq_ints_lost>  (50) 
3

>  <num_new_uniq_ints>  (50) 
1

>  <int_check>  (50) 
True

>  <original SMILES>  (50) 
Cc1ccc(NCc2ccc(S(C)(=O)=O)cc2)nc1

>  <original_name>  (50) 
x0365_0A-x0310_0A_1706_B1X_rgrp-1

>  <ref_mols>  (50) 
Ax0365a,Ax0310a

>  <ref_pdb>  (50) 
Ax0310a

>  <rationale>  (50) 
FragNet: 1 round bioisosteric merging incl NCc1ccccc1 and [Xe]c1ccccn1 replacing [Xe]n1cccn1

$$$$
x0365_0A-x0310_0A_1630_B1X
     RDKit          3D

 13 14  0  0  0  0  0  0  0  0999 V2000
    7.1290   11.7690   30.5620 C   0  0  0  0  0  0  0  0  0  0  0  0
    6.6310   10.5190   30.1970 C   0  0  0  0  0  0  0  0  0  0  0  0
    6.2000   10.2950   28.8920 C   0  0  0  0  0  0  0  0  0  0  0  0
    6.2620   11.3210   27.9320 C   0  0  0  0  0  0  0  0  0  0  0  0
    5.8100   11.0760   26.5180 C   0  0  0  0  0  0  0  0  0  0  0  0
    6.7250   10.1480   25.8710 N   0  0  0  0  0  0  0  0  0  0  0  0
    7.7220   10.4560   24.9790 C   0  0  0  0  0  0  0  0  0  0  0  0
    8.3890    9.5100   24.3290 N   0  0  0  0  0  0  0  0  0  0  0  0
    9.3420   10.0430   23.4970 C   0  0  0  0  0  0  0  0  0  0  0  0
    9.4150   11.4140   23.4950 C   0  0  0  0  0  0  0  0  0  0  0  0
    8.2490   12.0470   24.5750 S   0  0  0  0  0  0  0  0  0  0  0  0
    6.7610   12.5750   28.3130 C   0  0  0  0  0  0  0  0  0  0  0  0
    7.1920   12.7960   29.6210 C   0  0  0  0  0  0  0  0  0  0  0  0
  1  2  2  0
  2  3  1  0
  3  4  2  0
  4  5  1  0
  5  6  1  0
  6  7  1  0
  7  8  2  0
  8  9  1  0
  9 10  2  0
 10 11  1  0
  4 12  1  0
 12 13  2  0
 13  1  1  0
 11  7  1  0
A    1
 C1 
A    2
 C2 
A    3
 C3 
A    4
 C4 
A    5
 C5 
A    6
 N1 
A    7
 C6 
A    8
 N2 
A    9
 C7 
A   10
 C8 
A   11
 S1 
A   12
 C9 
A   13
 C10
M  END
>  <similarity>  (51) 
1.0

>  <smiles>  (51) 
c1ccc(CNc2nccs2)cc1

>  <cmpd_id>  (51) 
MOLPORT:005-205-918,ENAMINE:Z86229412

>  <used_subnode>  (51) 
NCc1ccccc1

>  <used_synthon>  (51) 
[Xe]c1nccs1

>  <ref_subnode>  (51) 
NCc1ccccc1

>  <ref_synthon>  (51) 
[Xe]n1cccn1

>  <fragmentA>  (51) 
x0365_0A

>  <fragmentB>  (51) 
x0310_0A

>  <HA>  (51) 
13

>  <HBD>  (51) 
1

>  <HBA>  (51) 
3

>  <MW>  (51) 
190.05646932

>  <TPSA>  (51) 
24.92

>  <LogP>  (51) 
2.7552000000000003

>  <RBs>  (51) 
3

>  <G_bound>  (51) 
-5.879097430011501

>  <G_unbound>  (51) 
0.1281059101746834

>  <deltaG>  (51) 
-6.007203340186185

>  <comRMSD>  (51) 
0.3381768130872919

>  <substructure_overlap_check>  (51) 
True

>  <sucos>  (51) 
0.5764184072779887

>  <interactions>  (51) 
Hydrophobic_PRO-107,Hydrophobic_GLU-106,HBAcceptor_SER-105,HBDonor_SER-105

>  <total_num_ints>  (51) 
4

>  <total_num_ints_nonhyd>  (51) 
2

>  <num_uniq_frag_ints>  (51) 
6

>  <num_repl_uniq_ints>  (51) 
3

>  <num_uniq_ints_lost>  (51) 
3

>  <num_new_uniq_ints>  (51) 
1

>  <int_check>  (51) 
True

>  <original SMILES>  (51) 
c1ccc(CNc2nccs2)cc1

>  <original_name>  (51) 
x0365_0A-x0310_0A_1630_B1X

>  <ref_mols>  (51) 
Ax0365a,Ax0310a

>  <ref_pdb>  (51) 
Ax0310a

>  <rationale>  (51) 
FragNet: 1 round bioisosteric merging incl NCc1ccccc1 and [Xe]c1nccs1 replacing [Xe]n1cccn1

$$$$
x0515_1A-x0528_0A_108_B1X
     RDKit          3D

 19 20  0  0  0  0  0  0  0  0999 V2000
    8.0270    9.4400   24.5900 N   0  0  0  0  0  0  0  0  0  0  0  0
    7.4280   10.5210   25.2770 C   0  0  0  0  0  0  0  0  0  0  0  0
    6.3340   10.3700   26.1420 C   0  0  0  0  0  0  0  0  0  0  0  0
    5.7770   11.4410   26.7940 C   0  0  0  0  0  0  0  0  0  0  0  0
    4.7310   11.2850   27.6200 F   0  0  0  0  0  0  0  0  0  0  0  0
    6.3700   12.7710   26.5560 C   0  0  0  0  0  0  0  0  0  0  0  0
    7.4030   12.9070   25.7350 N   0  0  0  0  0  0  0  0  0  0  0  0
    7.8910   11.7810   25.1250 C   0  0  0  0  0  0  0  0  0  0  0  0
    9.0510   11.9630   24.1960 C   0  0  0  0  0  0  0  0  0  0  0  0
    9.1830   11.2690   23.2090 O   0  0  0  0  0  0  0  0  0  0  0  0
    9.9540   12.9310   24.5470 N   0  0  0  0  0  0  0  0  0  0  0  0
   11.2740   12.9070   23.9910 C   0  0  0  0  0  0  0  0  0  0  0  0
   11.5780   14.1690   23.3220 C   0  0  1  0  0  0  0  0  0  0  0  0
   12.9000   14.1910   22.9510 C   0  0  0  0  0  0  0  0  0  0  0  0
   13.1120   15.1470   21.8240 C   0  0  0  0  0  0  0  0  0  0  0  0
   12.0990   16.0160   21.7920 N   0  0  0  0  0  0  0  0  0  0  0  0
   10.8790   15.5140   21.4650 C   0  0  0  0  0  0  0  0  0  0  0  0
   10.0930   16.0410   20.6920 O   0  0  0  0  0  0  0  0  0  0  0  0
   10.5980   14.2610   22.1790 C   0  0  0  0  0  0  0  0  0  0  0  0
  1  2  1  0
  2  3  2  0
  3  4  1  0
  4  5  1  0
  4  6  2  0
  6  7  1  0
  7  8  2  0
  8  9  1  0
  9 10  2  0
  9 11  1  0
 11 12  1  0
 13 12  1  6
 13 14  1  0
 14 15  1  0
 15 16  1  0
 16 17  1  0
 17 18  2  0
 17 19  1  0
  8  2  1  0
 19 13  1  0
A    1
 N1 
A    2
 C1 
A    3
 C2 
A    4
 C3 
A    5
 F1 
A    6
 C4 
A    7
 N2 
A    8
 C5 
A    9
 C6 
A   10
 O1 
A   11
 N3 
A   12
 C7 
A   13
 C8 
A   14
 C9 
A   15
 C10
A   16
 N4 
A   17
 C11
A   18
 O2 
A   19
 C12
M  END
>  <similarity>  (52) 
1.0

>  <smiles>  (52) 
Nc1cc(F)cnc1C(=O)NCC1CCNC(=O)C1

>  <cmpd_id>  (52) 
ENAMINE:Z4492054016

>  <used_subnode>  (52) 
Nc1cccnc1

>  <used_synthon>  (52) 
O=C1CC([Xe])CCN1

>  <ref_subnode>  (52) 
Nc1cccnc1

>  <ref_synthon>  (52) 
O=C1NCCC1[Xe]

>  <fragmentA>  (52) 
x0515_1A

>  <fragmentB>  (52) 
x0528_0A

>  <HA>  (52) 
19

>  <HBD>  (52) 
3

>  <HBA>  (52) 
4

>  <MW>  (52) 
266.11790394

>  <TPSA>  (52) 
97.10999999999999

>  <LogP>  (52) 
0.058899999999999786

>  <RBs>  (52) 
3

>  <G_bound>  (52) 
0.2660981395323477

>  <G_unbound>  (52) 
1.10522908147238

>  <deltaG>  (52) 
-0.8391309419400323

>  <comRMSD>  (52) 
1.4964846175871975

>  <substructure_overlap_check>  (52) 
True

>  <sucos>  (52) 
0.577385541030893

>  <interactions>  (52) 
Hydrophobic_PRO-107,Hydrophobic_HIS-21,Hydrophobic_TYR-89,HBDonor_GLU-106,HBDonor_SER-105

>  <total_num_ints>  (52) 
5

>  <total_num_ints_nonhyd>  (52) 
2

>  <num_uniq_frag_ints>  (52) 
3

>  <num_repl_uniq_ints>  (52) 
2

>  <num_uniq_ints_lost>  (52) 
1

>  <num_new_uniq_ints>  (52) 
3

>  <int_check>  (52) 
True

>  <original SMILES>  (52) 
Nc1cc(F)cnc1C(=O)NCC1CCNC(=O)C1

>  <original_name>  (52) 
x0515_1A-x0528_0A_108_B1X

>  <ref_mols>  (52) 
Ax0515a,Ax0528a

>  <ref_pdb>  (52) 
Ax0310a

>  <rationale>  (52) 
FragNet: 1 round bioisosteric merging incl Nc1cccnc1 and O=C1CC([Xe])CCN1 replacing O=C1NCCC1[Xe]

$$$$
x0528_0A-x0515_1A_1662_PXX
     RDKit          3D

 22 24  0  0  0  0  0  0  0  0999 V2000
   13.1930   15.9720   21.0890 C   0  0  0  0  0  0  0  0  0  0  0  0
   12.2150   15.7730   22.0830 N   0  0  0  0  0  0  0  0  0  0  0  0
   12.6430   15.1060   23.2780 C   0  0  0  0  0  0  0  0  0  0  0  0
   12.1480   13.7130   23.0540 C   0  0  0  0  0  0  0  0  0  0  0  0
   10.8010   13.9790   22.4560 C   0  0  1  0  0  0  0  0  0  0  0  0
    9.7390   13.9560   23.4190 N   0  0  0  0  0  0  0  0  0  0  0  0
   10.1800   14.0560   24.7980 C   0  0  0  0  0  0  0  0  0  0  0  0
    8.7840   13.0610   23.0330 C   0  0  0  0  0  0  0  0  0  0  0  0
    7.6970   13.3650   22.5300 O   0  0  0  0  0  0  0  0  0  0  0  0
    9.1250   11.7120   23.2400 C   0  0  0  0  0  0  0  0  0  0  0  0
   10.0780   11.0180   22.5610 N   0  0  0  0  0  0  0  0  0  0  0  0
   10.1890    9.7380   22.9340 N   0  0  0  0  0  0  0  0  0  0  0  0
    9.2680    9.6440   23.8780 C   0  0  0  0  0  0  0  0  0  0  0  0
    8.5920   10.8490   24.1050 C   0  0  0  0  0  0  0  0  0  0  0  0
    7.5470   11.1810   25.0100 C   0  0  0  0  0  0  0  0  0  0  0  0
    6.9780   12.5430   25.1830 C   0  0  0  0  0  0  0  0  0  0  0  0
    5.8630   12.5750   26.2130 C   0  0  0  0  0  0  0  0  0  0  0  0
    5.4160   11.5270   26.9090 N   0  0  0  0  0  0  0  0  0  0  0  0
    6.0150   10.3790   26.6560 C   0  0  0  0  0  0  0  0  0  0  0  0
    7.0360   10.2000   25.7460 C   0  0  0  0  0  0  0  0  0  0  0  0
   10.9890   15.2840   21.7050 C   0  0  0  0  0  0  0  0  0  0  0  0
   10.2000   15.7860   20.9240 O   0  0  0  0  0  0  0  0  0  0  0  0
  1  2  1  0
  2  3  1  0
  3  4  1  0
  4  5  1  0
  5  6  1  1
  6  7  1  0
  6  8  1  0
  8  9  2  0
  8 10  1  0
 10 11  1  0
 11 12  1  0
 12 13  2  0
 13 14  1  0
 14 15  1  0
 15 16  2  0
 16 17  1  0
 17 18  2  0
 18 19  1  0
 19 20  2  0
  5 21  1  0
 21 22  2  0
 21  2  1  0
 14 10  2  0
 20 15  1  0
A    1
 C1 
A    2
 N1 
A    3
 C2 
A    4
 C3 
A    5
 C4 
A    6
 N2 
A    7
 C5 
A    8
 C6 
A    9
 O1 
A   10
 C7 
A   11
 N3 
A   12
 N4 
A   13
 C8 
A   14
 C9 
A   15
 C10
A   16
 C11
A   17
 C12
A   18
 N5 
A   19
 C13
A   20
 C14
A   21
 C15
A   22
 O2 
M  END
>  <similarity>  (53) 
NA

>  <smiles>  (53) 
CN1CCC(N(C)C(=O)c2[nH]ncc2-c2ccncc2)C1=O

>  <cmpd_id>  (53) 
ENAMINE:Z4126951290

>  <used_subnode>  (53) 
NA

>  <used_synthon>  (53) 
NA

>  <ref_subnode>  (53) 
CN1CCCC1=O

>  <ref_synthon>  (53) 
[Xe]c1ccncc1

>  <fragmentA>  (53) 
x0528_0A

>  <fragmentB>  (53) 
x0515_1A

>  <HA>  (53) 
22

>  <HBD>  (53) 
1

>  <HBA>  (53) 
4

>  <MW>  (53) 
299.138224784

>  <TPSA>  (53) 
82.19

>  <LogP>  (53) 
0.7743999999999995

>  <RBs>  (53) 
3

>  <G_bound>  (53) 
-9.263697061200208

>  <G_unbound>  (53) 
0.48898416478946083

>  <deltaG>  (53) 
-9.752681225989669

>  <comRMSD>  (53) 
1.4124532800283993

>  <substructure_overlap_check>  (53) 
True

>  <sucos>  (53) 
0.5781931980621

>  <interactions>  (53) 
Hydrophobic_PRO-107,HBAcceptor_GLY-127,Hydrophobic_HIS-21,HBDonor_SER-125

>  <total_num_ints>  (53) 
4

>  <total_num_ints_nonhyd>  (53) 
2

>  <num_uniq_frag_ints>  (53) 
3

>  <num_repl_uniq_ints>  (53) 
2

>  <num_uniq_ints_lost>  (53) 
1

>  <num_new_uniq_ints>  (53) 
2

>  <int_check>  (53) 
True

>  <original SMILES>  (53) 
CN1CCC(N(C)C(=O)c2[nH]ncc2-c2ccncc2)C1=O

>  <original_name>  (53) 
x0528_0A-x0515_1A_1662_PXX

>  <ref_mols>  (53) 
Ax0528a,Ax0515a

>  <ref_pdb>  (53) 
Ax0310a

>  <rationale>  (53) 
FragNet: perfect merge incl CN1CCCC1=O,[Xe]c1ccncc1

$$$$
x0446_0A-x0719_1A_1675_B1X
     RDKit          3D

 24 25  0  0  0  0  0  0  0  0999 V2000
    4.8140   13.2360   27.4300 C   0  0  0  0  0  0  0  0  0  0  0  0
    5.7160   12.3230   26.6270 C   0  0  0  0  0  0  0  0  0  0  0  0
    5.3100   10.9590   26.5000 N   0  0  0  0  0  0  0  0  0  0  0  0
    6.2860   10.2870   25.6760 C   0  0  0  0  0  0  0  0  0  0  0  0
    7.4120   11.1710   25.2170 C   0  0  0  0  0  0  0  0  0  0  0  0
    8.5670   10.8020   24.3410 C   0  0  0  0  0  0  0  0  0  0  0  0
    9.3090    9.8680   24.4300 O   0  0  0  0  0  0  0  0  0  0  0  0
    8.6990   11.7180   23.2390 N   0  0  0  0  0  0  0  0  0  0  0  0
    9.7610   12.6760   23.1820 C   0  0  0  0  0  0  0  0  0  0  0  0
    9.5340   13.7050   24.2890 C   0  0  0  0  0  0  0  0  0  0  0  0
   10.6370   14.0180   25.1020 C   0  0  0  0  0  0  0  0  0  0  0  0
   10.5500   14.9090   26.1790 C   0  0  0  0  0  0  0  0  0  0  0  0
    9.3440   15.5060   26.4780 C   0  0  0  0  0  0  0  0  0  0  0  0
    8.2300   15.2460   25.6870 C   0  0  0  0  0  0  0  0  0  0  0  0
    8.2850   14.3720   24.5680 C   0  0  0  0  0  0  0  0  0  0  0  0
    6.9740   14.2580   23.7740 C   0  0  0  0  0  0  0  0  0  0  0  0
    7.1160   14.4060   21.9480 S   0  0  0  0  0  6  0  0  0  0  0  0
    8.2830   15.1020   21.4380 O   0  0  0  0  0  0  0  0  0  0  0  0
    6.9990   13.0840   21.5700 O   0  0  0  0  0  0  0  0  0  0  0  0
    5.6860   14.9850   21.2580 N   0  0  0  0  0  0  0  0  0  0  0  0
    4.6060   13.9730   21.1250 C   0  0  0  0  0  0  0  0  0  0  0  0
    3.9930   13.6070   19.7870 C   0  0  0  0  0  0  0  0  0  0  0  0
    3.4550   14.2000   22.0910 C   0  0  0  0  0  0  0  0  0  0  0  0
    7.1790   12.7590   25.8480 S   0  0  0  0  0  0  0  0  0  0  0  0
  1  2  1  0
  2  3  2  0
  3  4  1  0
  4  5  2  0
  5  6  1  0
  6  7  2  0
  6  8  1  0
  8  9  1  0
  9 10  1  0
 10 11  2  0
 11 12  1  0
 12 13  2  0
 13 14  1  0
 14 15  2  0
 15 16  1  0
 16 17  1  0
 17 18  2  0
 17 19  2  0
 17 20  1  0
 20 21  1  0
 21 22  1  0
 21 23  1  0
  5 24  1  0
 24  2  1  0
 15 10  1  0
A    1
 C1 
A    2
 C2 
A    3
 N1 
A    4
 C3 
A    5
 C4 
A    6
 C5 
A    7
 O1 
A    8
 N2 
A    9
 C6 
A   10
 C7 
A   11
 C8 
A   12
 C9 
A   13
 C10
A   14
 C11
A   15
 C12
A   16
 C13
A   17
 S1 
A   18
 O2 
A   19
 O3 
A   20
 N3 
A   21
 C14
A   22
 C15
A   23
 C16
A   24
 S2 
M  END
>  <similarity>  (54) 
1.0

>  <smiles>  (54) 
Cc1ncc(C(=O)NCc2ccccc2CS(=O)(=O)NC(C)C)s1

>  <cmpd_id>  (54) 
ENAMINE:Z970393894

>  <used_subnode>  (54) 
CNC(=O)c1cnc(C)s1

>  <used_synthon>  (54) 
CC(C)NS(=O)(=O)C[Xe]

>  <ref_subnode>  (54) 
CNC(=O)c1cnc(C)s1

>  <ref_synthon>  (54) 
CC([Xe])CS(N)(=O)=O

>  <fragmentA>  (54) 
x0446_0A

>  <fragmentB>  (54) 
x0719_1A

>  <HA>  (54) 
24

>  <HBD>  (54) 
2

>  <HBA>  (54) 
5

>  <MW>  (54) 
367.1024335320001

>  <TPSA>  (54) 
88.16

>  <LogP>  (54) 
2.20932

>  <RBs>  (54) 
7

>  <G_bound>  (54) 
-2.4101834869383874

>  <G_unbound>  (54) 
-0.2390664161537562

>  <deltaG>  (54) 
-2.1711170707846312

>  <comRMSD>  (54) 
1.1973473891688184

>  <substructure_overlap_check>  (54) 
True

>  <sucos>  (54) 
0.5784606279051095

>  <interactions>  (54) 
Hydrophobic_GLU-85,HBDonor_GLU-85,Hydrophobic_PRO-107,HBAcceptor_GLY-127,Hydrophobic_VAL-84,Hydrophobic_GLU-88

>  <total_num_ints>  (54) 
6

>  <total_num_ints_nonhyd>  (54) 
2

>  <num_uniq_frag_ints>  (54) 
2

>  <num_repl_uniq_ints>  (54) 
2

>  <num_uniq_ints_lost>  (54) 
0

>  <num_new_uniq_ints>  (54) 
4

>  <int_check>  (54) 
True

>  <original SMILES>  (54) 
Cc1ncc(C(=O)NCc2ccccc2CS(=O)(=O)NC(C)C)s1

>  <original_name>  (54) 
x0446_0A-x0719_1A_1675_B1X

>  <ref_mols>  (54) 
Ax0446a,Ax0719a

>  <ref_pdb>  (54) 
Ax0310a

>  <rationale>  (54) 
FragNet: 1 round bioisosteric merging incl CNC(=O)c1cnc(C)s1 and CC(C)NS(=O)(=O)C[Xe] replacing CC([Xe])CS(N)(=O)=O

$$$$
x0556_0A-x0719_1A_1204_B1X
     RDKit          3D

 21 22  0  0  0  0  0  0  0  0999 V2000
    0.3270    7.5300   27.9470 N   0  0  0  0  0  0  0  0  0  0  0  0
    1.3790    7.2990   28.3810 C   0  0  0  0  0  0  0  0  0  0  0  0
    2.7240    7.0260   28.9120 C   0  0  0  0  0  0  0  0  0  0  0  0
    3.4730    8.3270   29.1180 C   0  0  2  0  0  0  0  0  0  0  0  0
    3.5750    9.2280   27.8790 C   0  0  0  0  0  0  0  0  0  0  0  0
    4.9390    9.7240   28.4100 C   0  0  2  0  0  0  0  0  0  0  0  0
    5.9330   10.0290   27.3450 N   0  0  0  0  0  0  0  0  0  0  0  0
    5.8890   11.2690   26.7160 C   0  0  0  0  0  0  0  0  0  0  0  0
    4.8410   11.8950   26.6720 O   0  0  0  0  0  0  0  0  0  0  0  0
    7.0520   11.8080   26.1660 N   0  0  0  0  0  0  0  0  0  0  0  0
    7.3320   11.2630   24.8720 C   0  0  0  0  0  0  0  0  0  0  0  0
    8.7310   11.4610   24.3960 C   0  0  0  0  0  0  0  0  0  0  0  0
    9.0610   12.9420   24.3120 C   0  0  0  0  0  0  0  0  0  0  0  0
    8.0300   13.8770   24.9920 C   0  0  1  0  0  0  0  0  0  0  0  0
    6.9580   14.4140   24.0090 C   0  0  0  0  0  0  0  0  0  0  0  0
    7.3250   14.3090   22.2400 S   0  0  0  0  0  6  0  0  0  0  0  0
    6.2990   15.4560   21.5800 N   0  0  0  0  0  0  0  0  0  0  0  0
    8.6770   14.7030   21.9170 O   0  0  0  0  0  0  0  0  0  0  0  0
    6.8150   13.1370   21.6890 O   0  0  0  0  0  0  0  0  0  0  0  0
    7.3280   13.2550   26.2410 C   0  0  0  0  0  0  0  0  0  0  0  0
    5.0250    8.3200   29.0720 C   0  0  0  0  0  0  0  0  0  0  0  0
  1  2  3  0
  2  3  1  0
  4  3  1  6
  4  5  1  0
  5  6  1  0
  6  7  1  6
  7  8  1  0
  8  9  2  0
  8 10  1  0
 10 11  1  0
 11 12  1  0
 12 13  1  0
 13 14  1  0
 14 15  1  6
 15 16  1  0
 16 17  1  0
 16 18  2  0
 16 19  2  0
 14 20  1  0
  6 21  1  0
 21  4  1  0
 20 10  1  0
A    1
 N1 
A    2
 C1 
A    3
 C2 
A    4
 C3 
A    5
 C4 
A    6
 C5 
A    7
 N2 
A    8
 C6 
A    9
 O1 
A   10
 N3 
A   11
 C7 
A   12
 C8 
A   13
 C9 
A   14
 C10
A   15
 C11
A   16
 S1 
A   17
 N4 
A   18
 O2 
A   19
 O3 
A   20
 C12
A   21
 C13
M  END
>  <similarity>  (55) 
1.0

>  <smiles>  (55) 
N#CCC1CC(NC(=O)N2CCCC(CS(N)(=O)=O)C2)C1

>  <cmpd_id>  (55) 
ENAMINE:PV-002903155997

>  <used_subnode>  (55) 
O=CNC1CCC1

>  <used_synthon>  (55) 
NS(=O)(=O)C[Xe]

>  <ref_subnode>  (55) 
O=CNC1CCC1

>  <ref_synthon>  (55) 
CC([Xe])CS(N)(=O)=O

>  <fragmentA>  (55) 
x0556_0A

>  <fragmentB>  (55) 
x0719_1A

>  <HA>  (55) 
21

>  <HBD>  (55) 
2

>  <HBA>  (55) 
4

>  <MW>  (55) 
314.141261564

>  <TPSA>  (55) 
116.28999999999999

>  <LogP>  (55) 
0.3887800000000009

>  <RBs>  (55) 
4

>  <G_bound>  (55) 
-2.980140111477112

>  <G_unbound>  (55) 
1.1809827636170753

>  <deltaG>  (55) 
-4.161122875094187

>  <comRMSD>  (55) 
0.5257224153057498

>  <substructure_overlap_check>  (55) 
True

>  <sucos>  (55) 
0.5788464823279311

>  <interactions>  (55) 
Hydrophobic_PRO-107,HBAcceptor_GLY-127,Hydrophobic_GLU-106,HBDonor_SER-105,Hydrophobic_HIS-104

>  <total_num_ints>  (55) 
5

>  <total_num_ints_nonhyd>  (55) 
2

>  <num_uniq_frag_ints>  (55) 
6

>  <num_repl_uniq_ints>  (55) 
5

>  <num_uniq_ints_lost>  (55) 
1

>  <num_new_uniq_ints>  (55) 
0

>  <int_check>  (55) 
True

>  <original SMILES>  (55) 
N#CCC1CC(NC(=O)N2CCCC(CS(N)(=O)=O)C2)C1

>  <original_name>  (55) 
x0556_0A-x0719_1A_1204_B1X

>  <ref_mols>  (55) 
Ax0556a,Ax0719a

>  <ref_pdb>  (55) 
Ax0310a

>  <rationale>  (55) 
FragNet: 1 round bioisosteric merging incl O=CNC1CCC1 and NS(=O)(=O)C[Xe] replacing CC([Xe])CS(N)(=O)=O

$$$$
x0365_0A-x0310_0A_1714_B1X_rgrp-0
     RDKit          3D

 20 21  0  0  0  0  0  0  0  0999 V2000
   10.5610   12.4720   22.9220 C   0  0  0  0  0  0  0  0  0  0  0  0
    9.5060   11.7270   23.6620 C   0  0  0  0  0  0  0  0  0  0  0  0
    8.6110   12.6810   24.4260 C   0  0  0  0  0  0  0  0  0  0  0  0
    7.6290   12.0490   25.1300 C   0  0  0  0  0  0  0  0  0  0  0  0
    7.5110   10.5210   25.0990 C   0  0  0  0  0  0  0  0  0  0  0  0
    6.4690   10.0390   25.8600 N   0  0  0  0  0  0  0  0  0  0  0  0
    5.6160   10.7850   26.7150 C   0  0  0  0  0  0  0  0  0  0  0  0
    6.1950   11.0980   28.0660 C   0  0  0  0  0  0  0  0  0  0  0  0
    6.7470   12.4960   28.1430 C   0  0  0  0  0  0  0  0  0  0  0  0
    7.3540   12.8720   29.4030 C   0  0  0  0  0  0  0  0  0  0  0  0
    7.3890   11.8600   30.5380 C   0  0  0  0  0  0  0  0  0  0  0  0
    8.1450   12.2630   32.0950 S   0  0  0  0  0  6  0  0  0  0  0  0
    9.5310   11.1680   32.2360 C   0  0  0  0  0  0  0  0  0  0  0  0
    8.6610   13.6120   31.9790 O   0  0  0  0  0  0  0  0  0  0  0  0
    7.2090   11.8890   33.1410 O   0  0  0  0  0  0  0  0  0  0  0  0
    6.8290   10.5730   30.3730 C   0  0  0  0  0  0  0  0  0  0  0  0
    6.8390    9.5530   31.4760 C   0  0  0  0  0  0  0  0  0  0  0  0
    6.2430   10.2130   29.1440 C   0  0  0  0  0  0  0  0  0  0  0  0
    8.3560    9.7300   24.3800 N   0  0  0  0  0  0  0  0  0  0  0  0
    9.3290   10.3510   23.6840 C   0  0  0  0  0  0  0  0  0  0  0  0
  1  2  1  0
  2  3  2  0
  3  4  1  0
  4  5  2  0
  5  6  1  0
  6  7  1  0
  7  8  1  0
  8  9  2  0
  9 10  1  0
 10 11  2  0
 11 12  1  0
 12 13  1  0
 12 14  2  0
 12 15  2  0
 11 16  1  0
 16 17  1  0
 16 18  2  0
  5 19  1  0
 19 20  2  0
 20  2  1  0
 18  8  1  0
A    1
 C1 
A    2
 C2 
A    3
 C3 
A    4
 C4 
A    5
 C5 
A    6
 N1 
A    7
 C6 
A    8
 C7 
A    9
 C8 
A   10
 C9 
A   11
 C10
A   12
 S1 
A   13
 C11
A   14
 O1 
A   15
 O2 
A   16
 C12
A   17
 C13
A   18
 C14
A   19
 N2 
A   20
 C15
M  END
>  <similarity>  (56) 
1.0

>  <smiles>  (56) 
Cc1ccc(NCc2ccc(S(C)(=O)=O)c(C)c2)nc1

>  <cmpd_id>  (56) 
ENAMINE:Z1414176608

>  <used_subnode>  (56) 
NCc1ccccc1

>  <used_synthon>  (56) 
[Xe]c1ccccn1

>  <ref_subnode>  (56) 
NCc1ccccc1

>  <ref_synthon>  (56) 
[Xe]n1cccn1

>  <fragmentA>  (56) 
x0365_0A

>  <fragmentB>  (56) 
x0310_0A

>  <HA>  (56) 
20

>  <HBD>  (56) 
1

>  <HBA>  (56) 
4

>  <MW>  (56) 
290.108898816

>  <TPSA>  (56) 
59.06

>  <LogP>  (56) 
2.7140400000000007

>  <RBs>  (56) 
4

>  <G_bound>  (56) 
-7.026079507135171

>  <G_unbound>  (56) 
0.09070687162082532

>  <deltaG>  (56) 
-7.116786378755997

>  <comRMSD>  (56) 
0.19297625631653276

>  <substructure_overlap_check>  (56) 
True

>  <sucos>  (56) 
0.5791628812414908

>  <interactions>  (56) 
Hydrophobic_GLU-106,Hydrophobic_PRO-107,HBDonor_GLY-128,HBAcceptor_SER-105

>  <total_num_ints>  (56) 
4

>  <total_num_ints_nonhyd>  (56) 
2

>  <num_uniq_frag_ints>  (56) 
6

>  <num_repl_uniq_ints>  (56) 
2

>  <num_uniq_ints_lost>  (56) 
4

>  <num_new_uniq_ints>  (56) 
2

>  <int_check>  (56) 
True

>  <original SMILES>  (56) 
Cc1ccc(NCc2ccc(S(C)(=O)=O)c(C)c2)nc1

>  <original_name>  (56) 
x0365_0A-x0310_0A_1714_B1X_rgrp-0

>  <ref_mols>  (56) 
Ax0365a,Ax0310a

>  <ref_pdb>  (56) 
Ax0310a

>  <rationale>  (56) 
FragNet: 1 round bioisosteric merging incl NCc1ccccc1 and [Xe]c1ccccn1 replacing [Xe]n1cccn1

$$$$
x0365_0A-x0310_0A_1709_B1X
     RDKit          3D

 17 18  0  0  0  0  0  0  0  0999 V2000
    8.5920   10.0900   32.3430 C   0  0  0  0  0  0  0  0  0  0  0  0
    7.7390   11.6430   32.1980 S   0  0  0  0  0  6  0  0  0  0  0  0
    6.5790   11.6160   33.0690 O   0  0  0  0  0  0  0  0  0  0  0  0
    8.7190   12.7090   32.2820 O   0  0  0  0  0  0  0  0  0  0  0  0
    7.1670   11.5640   30.5250 C   0  0  0  0  0  0  0  0  0  0  0  0
    6.6340   10.3590   30.0820 C   0  0  0  0  0  0  0  0  0  0  0  0
    6.1900   10.2500   28.7700 C   0  0  0  0  0  0  0  0  0  0  0  0
    6.2790   11.3460   27.8970 C   0  0  0  0  0  0  0  0  0  0  0  0
    5.8230   11.2040   26.4710 C   0  0  0  0  0  0  0  0  0  0  0  0
    6.6380   10.1750   25.8310 N   0  0  0  0  0  0  0  0  0  0  0  0
    7.6710   10.4410   24.9670 C   0  0  0  0  0  0  0  0  0  0  0  0
    8.3790    9.5190   24.3250 N   0  0  0  0  0  0  0  0  0  0  0  0
    9.3460   10.0950   23.5320 C   0  0  0  0  0  0  0  0  0  0  0  0
    9.3800   11.4680   23.5570 C   0  0  0  0  0  0  0  0  0  0  0  0
    8.1630   12.0530   24.6130 S   0  0  0  0  0  0  0  0  0  0  0  0
    6.8070   12.5600   28.3630 C   0  0  0  0  0  0  0  0  0  0  0  0
    7.2550   12.6730   29.6810 C   0  0  0  0  0  0  0  0  0  0  0  0
  1  2  1  0
  2  3  2  0
  2  4  2  0
  2  5  1  0
  5  6  2  0
  6  7  1  0
  7  8  2  0
  8  9  1  0
  9 10  1  0
 10 11  1  0
 11 12  2  0
 12 13  1  0
 13 14  2  0
 14 15  1  0
  8 16  1  0
 16 17  2  0
 17  5  1  0
 15 11  1  0
A    1
 C1 
A    2
 S1 
A    3
 O1 
A    4
 O2 
A    5
 C2 
A    6
 C3 
A    7
 C4 
A    8
 C5 
A    9
 C6 
A   10
 N1 
A   11
 C7 
A   12
 N2 
A   13
 C8 
A   14
 C9 
A   15
 S2 
A   16
 C10
A   17
 C11
M  END
>  <similarity>  (57) 
1.0

>  <smiles>  (57) 
CS(=O)(=O)c1ccc(CNc2nccs2)cc1

>  <cmpd_id>  (57) 
CHEMSPACE-BB:CSMB00000810066,ENAMINE:Z644878774

>  <used_subnode>  (57) 
NCc1ccccc1

>  <used_synthon>  (57) 
[Xe]c1nccs1

>  <ref_subnode>  (57) 
NCc1ccccc1

>  <ref_synthon>  (57) 
[Xe]n1cccn1

>  <fragmentA>  (57) 
x0365_0A

>  <fragmentB>  (57) 
x0310_0A

>  <HA>  (57) 
17

>  <HBD>  (57) 
1

>  <HBA>  (57) 
5

>  <MW>  (57) 
268.034019624

>  <TPSA>  (57) 
59.06

>  <LogP>  (57) 
2.1587000000000005

>  <RBs>  (57) 
4

>  <G_bound>  (57) 
-6.60018413105077

>  <G_unbound>  (57) 
0.1609309384625285

>  <deltaG>  (57) 
-6.761115069513298

>  <comRMSD>  (57) 
0.36896759586092315

>  <substructure_overlap_check>  (57) 
True

>  <sucos>  (57) 
0.5791728177674617

>  <interactions>  (57) 
Hydrophobic_PRO-107,Hydrophobic_GLU-106,HBAcceptor_SER-105,HBDonor_SER-105

>  <total_num_ints>  (57) 
4

>  <total_num_ints_nonhyd>  (57) 
2

>  <num_uniq_frag_ints>  (57) 
6

>  <num_repl_uniq_ints>  (57) 
3

>  <num_uniq_ints_lost>  (57) 
3

>  <num_new_uniq_ints>  (57) 
1

>  <int_check>  (57) 
True

>  <original SMILES>  (57) 
CS(=O)(=O)c1ccc(CNc2nccs2)cc1

>  <original_name>  (57) 
x0365_0A-x0310_0A_1709_B1X

>  <ref_mols>  (57) 
Ax0365a,Ax0310a

>  <ref_pdb>  (57) 
Ax0310a

>  <rationale>  (57) 
FragNet: 1 round bioisosteric merging incl NCc1ccccc1 and [Xe]c1nccs1 replacing [Xe]n1cccn1

$$$$
x0515_1A-x0528_0A_1081_B1X
     RDKit          3D

 19 20  0  0  0  0  0  0  0  0999 V2000
    7.6070    9.6220   25.0180 N   0  0  0  0  0  0  0  0  0  0  0  0
    7.0820   10.7680   25.5730 C   0  0  0  0  0  0  0  0  0  0  0  0
    7.6030   12.0020   25.2500 C   0  0  0  0  0  0  0  0  0  0  0  0
    8.7240   12.1780   24.3460 C   0  0  0  0  0  0  0  0  0  0  0  0
    8.9040   11.6320   23.2790 O   0  0  0  0  0  0  0  0  0  0  0  0
    9.5040   13.0520   24.9810 O   0  0  0  0  0  0  0  0  0  0  0  0
   10.1130   14.0300   24.2010 C   0  0  0  0  0  0  0  0  0  0  0  0
   11.1490   13.3760   23.3410 C   0  0  2  0  0  0  0  0  0  0  0  0
   12.5500   13.8020   23.6340 C   0  0  0  0  0  0  0  0  0  0  0  0
   12.7130   15.2550   23.2570 C   0  0  0  0  0  0  0  0  0  0  0  0
   12.0870   15.7290   22.0480 N   0  0  0  0  0  0  0  0  0  0  0  0
   10.9730   15.1590   21.5870 C   0  0  0  0  0  0  0  0  0  0  0  0
   10.1120   15.7720   20.9660 O   0  0  0  0  0  0  0  0  0  0  0  0
   10.9100   13.7200   21.9060 C   0  0  0  0  0  0  0  0  0  0  0  0
    7.0720   13.1640   25.8010 C   0  0  0  0  0  0  0  0  0  0  0  0
    6.0220   13.0610   26.6740 C   0  0  0  0  0  0  0  0  0  0  0  0
    5.4810   11.9090   27.0320 N   0  0  0  0  0  0  0  0  0  0  0  0
    5.9990   10.8100   26.5010 C   0  0  0  0  0  0  0  0  0  0  0  0
    5.0870    9.5250   27.1850 Cl  0  0  0  0  0  0  0  0  0  0  0  0
  1  2  1  0
  2  3  2  0
  3  4  1  0
  4  5  2  0
  4  6  1  0
  6  7  1  0
  8  7  1  1
  8  9  1  0
  9 10  1  0
 10 11  1  0
 11 12  1  0
 12 13  2  0
 12 14  1  0
  3 15  1  0
 15 16  2  0
 16 17  1  0
 17 18  2  0
 18 19  1  0
 18  2  1  0
 14  8  1  0
A    1
 N1 
A    2
 C1 
A    3
 C2 
A    4
 C3 
A    5
 O1 
A    6
 O2 
A    7
 C4 
A    8
 C5 
A    9
 C6 
A   10
 C7 
A   11
 N2 
A   12
 C8 
A   13
 O3 
A   14
 C9 
A   15
 C10
A   16
 C11
A   17
 N3 
A   18
 C12
A   19
CL1 
M  END
>  <similarity>  (58) 
1.0

>  <smiles>  (58) 
Nc1c(C(=O)OCC2CCNC(=O)C2)ccnc1Cl

>  <cmpd_id>  (58) 
ENAMINE:Z3817228959

>  <used_subnode>  (58) 
COC(=O)c1ccncc1N

>  <used_synthon>  (58) 
O=C1CC([Xe])CCN1

>  <ref_subnode>  (58) 
COC(=O)c1ccncc1N

>  <ref_synthon>  (58) 
O=C1NCCC1[Xe]

>  <fragmentA>  (58) 
x0515_1A

>  <fragmentB>  (58) 
x0528_0A

>  <HA>  (58) 
19

>  <HBD>  (58) 
2

>  <HBA>  (58) 
5

>  <MW>  (58) 
283.072368988

>  <TPSA>  (58) 
94.31000000000002

>  <LogP>  (58) 
1.0001999999999995

>  <RBs>  (58) 
3

>  <G_bound>  (58) 
1.0451995785803865

>  <G_unbound>  (58) 
1.8686115276920754

>  <deltaG>  (58) 
-0.8234119491116889

>  <comRMSD>  (58) 
0.875294497032253

>  <substructure_overlap_check>  (58) 
True

>  <sucos>  (58) 
0.5807223278596816

>  <interactions>  (58) 
Hydrophobic_PRO-107,Hydrophobic_HIS-21,HBDonor_GLU-106,HBDonor_SER-105

>  <total_num_ints>  (58) 
4

>  <total_num_ints_nonhyd>  (58) 
2

>  <num_uniq_frag_ints>  (58) 
3

>  <num_repl_uniq_ints>  (58) 
2

>  <num_uniq_ints_lost>  (58) 
1

>  <num_new_uniq_ints>  (58) 
2

>  <int_check>  (58) 
True

>  <original SMILES>  (58) 
Nc1c(C(=O)OCC2CCNC(=O)C2)ccnc1Cl

>  <original_name>  (58) 
x0515_1A-x0528_0A_1081_B1X

>  <ref_mols>  (58) 
Ax0515a,Ax0528a

>  <ref_pdb>  (58) 
Ax0310a

>  <rationale>  (58) 
FragNet: 1 round bioisosteric merging incl COC(=O)c1ccncc1N and O=C1CC([Xe])CCN1 replacing O=C1NCCC1[Xe]

$$$$
x0365_0A-x0310_0A_1709_B1X_rgrp-1
     RDKit          3D

 18 19  0  0  0  0  0  0  0  0999 V2000
   10.3200   12.5460   22.9800 C   0  0  0  0  0  0  0  0  0  0  0  0
    9.3730   11.6360   23.7010 C   0  0  0  0  0  0  0  0  0  0  0  0
    9.3760   10.2490   23.5720 C   0  0  0  0  0  0  0  0  0  0  0  0
    8.4260    9.6020   24.3290 N   0  0  0  0  0  0  0  0  0  0  0  0
    7.7170   10.4950   25.0260 C   0  0  0  0  0  0  0  0  0  0  0  0
    6.7030   10.2120   25.8850 N   0  0  0  0  0  0  0  0  0  0  0  0
    5.8710   11.2490   26.4840 C   0  0  0  0  0  0  0  0  0  0  0  0
    6.3050   11.4150   27.7820 C   0  0  0  0  0  0  0  0  0  0  0  0
    6.1370   10.2200   28.5070 C   0  0  0  0  0  0  0  0  0  0  0  0
    6.6090   10.3040   29.9390 C   0  0  0  0  0  0  0  0  0  0  0  0
    7.1780   11.5370   30.4740 C   0  0  0  0  0  0  0  0  0  0  0  0
    7.7370   11.5890   32.1540 S   0  0  0  0  0  6  0  0  0  0  0  0
    8.6120   10.0480   32.2840 C   0  0  0  0  0  0  0  0  0  0  0  0
    6.5760   11.5360   33.0200 O   0  0  0  0  0  0  0  0  0  0  0  0
    8.7020   12.6700   32.2620 O   0  0  0  0  0  0  0  0  0  0  0  0
    7.2770   12.6570   29.6430 C   0  0  0  0  0  0  0  0  0  0  0  0
    6.8450   12.5960   28.3110 C   0  0  0  0  0  0  0  0  0  0  0  0
    8.1620   12.1420   24.7830 S   0  0  0  0  0  0  0  0  0  0  0  0
  1  2  1  0
  2  3  2  0
  3  4  1  0
  4  5  2  0
  5  6  1  0
  6  7  1  0
  7  8  1  0
  8  9  2  0
  9 10  1  0
 10 11  2  0
 11 12  1  0
 12 13  1  0
 12 14  2  0
 12 15  2  0
 11 16  1  0
 16 17  2  0
  5 18  1  0
 18  2  1  0
 17  8  1  0
A    1
 C1 
A    2
 C2 
A    3
 C3 
A    4
 N1 
A    5
 C4 
A    6
 N2 
A    7
 C5 
A    8
 C6 
A    9
 C7 
A   10
 C8 
A   11
 C9 
A   12
 S1 
A   13
 C10
A   14
 O1 
A   15
 O2 
A   16
 C11
A   17
 C12
A   18
 S2 
M  END
>  <similarity>  (59) 
1.0

>  <smiles>  (59) 
Cc1cnc(NCc2ccc(S(C)(=O)=O)cc2)s1

>  <cmpd_id>  (59) 
ENAMINE:Z1673502592

>  <used_subnode>  (59) 
NCc1ccccc1

>  <used_synthon>  (59) 
[Xe]c1nccs1

>  <ref_subnode>  (59) 
NCc1ccccc1

>  <ref_synthon>  (59) 
[Xe]n1cccn1

>  <fragmentA>  (59) 
x0365_0A

>  <fragmentB>  (59) 
x0310_0A

>  <HA>  (59) 
18

>  <HBD>  (59) 
1

>  <HBA>  (59) 
5

>  <MW>  (59) 
282.049669688

>  <TPSA>  (59) 
59.06

>  <LogP>  (59) 
2.4671200000000004

>  <RBs>  (59) 
4

>  <G_bound>  (59) 
-7.890802525926145

>  <G_unbound>  (59) 
0.16602549945871214

>  <deltaG>  (59) 
-8.056828025384858

>  <comRMSD>  (59) 
0.13081671605812284

>  <substructure_overlap_check>  (59) 
True

>  <sucos>  (59) 
0.5831169124325565

>  <interactions>  (59) 
Hydrophobic_GLU-106,Hydrophobic_PRO-107,HBAcceptor_SER-105,HBDonor_SER-105

>  <total_num_ints>  (59) 
4

>  <total_num_ints_nonhyd>  (59) 
2

>  <num_uniq_frag_ints>  (59) 
6

>  <num_repl_uniq_ints>  (59) 
3

>  <num_uniq_ints_lost>  (59) 
3

>  <num_new_uniq_ints>  (59) 
1

>  <int_check>  (59) 
True

>  <original SMILES>  (59) 
Cc1cnc(NCc2ccc(S(C)(=O)=O)cc2)s1

>  <original_name>  (59) 
x0365_0A-x0310_0A_1709_B1X_rgrp-1

>  <ref_mols>  (59) 
Ax0365a,Ax0310a

>  <ref_pdb>  (59) 
Ax0310a

>  <rationale>  (59) 
FragNet: 1 round bioisosteric merging incl NCc1ccccc1 and [Xe]c1nccs1 replacing [Xe]n1cccn1

$$$$
x0556_0A-x0310_0A_1987_PXX
     RDKit          3D

 21 23  0  0  0  0  0  0  0  0999 V2000
   10.6660   12.2820   22.5980 N   0  0  0  0  0  0  0  0  0  0  0  0
   10.0800   11.0890   22.9010 C   0  0  0  0  0  0  0  0  0  0  0  0
   10.4100   10.0160   22.4280 O   0  0  0  0  0  0  0  0  0  0  0  0
    8.9850   11.1530   23.8390 C   0  0  0  0  0  0  0  0  0  0  0  0
    8.5590    9.9730   24.3690 C   0  0  0  0  0  0  0  0  0  0  0  0
    7.5460    9.9210   25.2450 N   0  0  0  0  0  0  0  0  0  0  0  0
    6.9830   11.1090   25.5550 C   0  0  0  0  0  0  0  0  0  0  0  0
    5.8540   11.0720   26.5140 C   0  0  0  0  0  0  0  0  0  0  0  0
    5.1940   12.0780   26.7320 O   0  0  0  0  0  0  0  0  0  0  0  0
    5.6150    9.8440   27.1120 N   0  0  0  0  0  0  0  0  0  0  0  0
    4.6050    9.6170   28.1520 C   0  0  2  0  0  0  0  0  0  0  0  0
    4.9280    8.3980   29.0430 C   0  0  0  0  0  0  0  0  0  0  0  0
    3.4390    8.0130   29.0170 C   0  0  2  0  0  0  0  0  0  0  0  0
    3.2180    6.5640   28.8420 N   0  0  0  0  0  0  0  0  0  0  0  0
    4.1360    5.6140   29.2020 C   0  0  0  0  0  0  0  0  0  0  0  0
    3.5660    4.4030   28.8880 C   0  0  0  0  0  0  0  0  0  0  0  0
    2.3120    4.7300   28.3430 C   0  0  0  0  0  0  0  0  0  0  0  0
    2.0940    6.0460   28.3130 N   0  0  0  0  0  0  0  0  0  0  0  0
    3.3490    8.8170   27.7070 C   0  0  0  0  0  0  0  0  0  0  0  0
    7.4200   12.3090   25.0160 C   0  0  0  0  0  0  0  0  0  0  0  0
    8.4470   12.3660   24.1310 N   0  0  0  0  0  0  0  0  0  0  0  0
  1  2  1  0
  2  3  2  0
  2  4  1  0
  4  5  2  0
  5  6  1  0
  6  7  2  0
  7  8  1  0
  8  9  2  0
  8 10  1  0
 11 10  1  6
 11 12  1  0
 12 13  1  0
 13 14  1  6
 14 15  1  0
 15 16  2  0
 16 17  1  0
 17 18  2  0
 13 19  1  0
  7 20  1  0
 20 21  2  0
 21  4  1  0
 19 11  1  0
 18 14  1  0
A    1
 N1 
A    2
 C1 
A    3
 O1 
A    4
 C2 
A    5
 C3 
A    6
 N2 
A    7
 C4 
A    8
 C5 
A    9
 O2 
A   10
 N3 
A   11
 C6 
A   12
 C7 
A   13
 C8 
A   14
 N4 
A   15
 C9 
A   16
 C10
A   17
 C11
A   18
 N5 
A   19
 C12
A   20
 C13
A   21
 N6 
M  END
>  <similarity>  (60) 
NA

>  <smiles>  (60) 
NC(=O)c1cnc(C(=O)NC2CC(n3cccn3)C2)cn1

>  <cmpd_id>  (60) 
ENAMINE:PV-002892008816,ENAMINE:PV-002892008817

>  <used_subnode>  (60) 
NA

>  <used_synthon>  (60) 
NA

>  <ref_subnode>  (60) 
O=CNC1CCC1

>  <ref_synthon>  (60) 
[Xe]n1cccn1

>  <fragmentA>  (60) 
x0556_0A

>  <fragmentB>  (60) 
x0310_0A

>  <HA>  (60) 
21

>  <HBD>  (60) 
2

>  <HBA>  (60) 
6

>  <MW>  (60) 
286.11782368800004

>  <TPSA>  (60) 
115.79000000000002

>  <LogP>  (60) 
-0.09450000000000025

>  <RBs>  (60) 
4

>  <G_bound>  (60) 
-4.083548922154772

>  <G_unbound>  (60) 
0.807521111033671

>  <deltaG>  (60) 
-4.891070033188442

>  <comRMSD>  (60) 
0.6918171242007254

>  <substructure_overlap_check>  (60) 
True

>  <sucos>  (60) 
0.5834204425716532

>  <interactions>  (60) 
Hydrophobic_PRO-107,Hydrophobic_HIS-104,Hydrophobic_GLU-106,HBDonor_SER-125,HBDonor_SER-105

>  <total_num_ints>  (60) 
5

>  <total_num_ints_nonhyd>  (60) 
2

>  <num_uniq_frag_ints>  (60) 
8

>  <num_repl_uniq_ints>  (60) 
5

>  <num_uniq_ints_lost>  (60) 
3

>  <num_new_uniq_ints>  (60) 
0

>  <int_check>  (60) 
True

>  <original SMILES>  (60) 
NC(=O)c1cnc(C(=O)NC2CC(n3cccn3)C2)cn1

>  <original_name>  (60) 
x0556_0A-x0310_0A_1987_PXX

>  <ref_mols>  (60) 
Ax0556a,Ax0310a

>  <ref_pdb>  (60) 
Ax0310a

>  <rationale>  (60) 
FragNet: perfect merge incl O=CNC1CCC1,[Xe]n1cccn1

$$$$
x0365_0A-x0310_0A_1630_B1X_rgrp-1
     RDKit          3D

 14 15  0  0  0  0  0  0  0  0999 V2000
   10.3790   12.4920   22.9420 C   0  0  0  0  0  0  0  0  0  0  0  0
    9.4040   11.5910   23.6710 C   0  0  0  0  0  0  0  0  0  0  0  0
    9.4700   10.2190   23.4810 C   0  0  0  0  0  0  0  0  0  0  0  0
    8.5120    9.6160   24.2370 N   0  0  0  0  0  0  0  0  0  0  0  0
    7.7050   10.4690   25.0100 C   0  0  0  0  0  0  0  0  0  0  0  0
    6.6970   10.1490   25.8450 N   0  0  0  0  0  0  0  0  0  0  0  0
    5.8590   11.1670   26.4510 C   0  0  0  0  0  0  0  0  0  0  0  0
    6.2740   11.3500   27.8860 C   0  0  0  0  0  0  0  0  0  0  0  0
    6.1910   10.1730   28.8560 C   0  0  0  0  0  0  0  0  0  0  0  0
    6.6510   10.4720   30.2900 C   0  0  0  0  0  0  0  0  0  0  0  0
    7.1550   11.8660   30.6940 C   0  0  0  0  0  0  0  0  0  0  0  0
    7.1470   12.8030   29.6490 C   0  0  0  0  0  0  0  0  0  0  0  0
    6.7400   12.5860   28.3290 C   0  0  0  0  0  0  0  0  0  0  0  0
    8.1720   12.1030   24.7600 S   0  0  0  0  0  0  0  0  0  0  0  0
  1  2  1  0
  2  3  2  0
  3  4  1  0
  4  5  2  0
  5  6  1  0
  6  7  1  0
  7  8  1  0
  8  9  2  0
  9 10  1  0
 10 11  2  0
 11 12  1  0
 12 13  2  0
  5 14  1  0
 14  2  1  0
 13  8  1  0
A    1
 C1 
A    2
 C2 
A    3
 C3 
A    4
 N1 
A    5
 C4 
A    6
 N2 
A    7
 C5 
A    8
 C6 
A    9
 C7 
A   10
 C8 
A   11
 C9 
A   12
 C10
A   13
 C11
A   14
 S1 
M  END
>  <similarity>  (61) 
1.0

>  <smiles>  (61) 
Cc1cnc(NCc2ccccc2)s1

>  <cmpd_id>  (61) 
CHEMSPACE-BB:CSMB00012350292,MOLPORT:019-873-566,ENAMINE:Z1606798232

>  <used_subnode>  (61) 
NCc1ccccc1

>  <used_synthon>  (61) 
[Xe]c1nccs1

>  <ref_subnode>  (61) 
NCc1ccccc1

>  <ref_synthon>  (61) 
[Xe]n1cccn1

>  <fragmentA>  (61) 
x0365_0A

>  <fragmentB>  (61) 
x0310_0A

>  <HA>  (61) 
14

>  <HBD>  (61) 
1

>  <HBA>  (61) 
3

>  <MW>  (61) 
204.072119384

>  <TPSA>  (61) 
24.92

>  <LogP>  (61) 
3.063620000000001

>  <RBs>  (61) 
3

>  <G_bound>  (61) 
-7.106793594857255

>  <G_unbound>  (61) 
0.17812794610384075

>  <deltaG>  (61) 
-7.284921540961095

>  <comRMSD>  (61) 
0.14358491902191944

>  <substructure_overlap_check>  (61) 
True

>  <sucos>  (61) 
0.5834939689492052

>  <interactions>  (61) 
Hydrophobic_GLU-106,Hydrophobic_PRO-107,HBAcceptor_SER-105,HBDonor_SER-105

>  <total_num_ints>  (61) 
4

>  <total_num_ints_nonhyd>  (61) 
2

>  <num_uniq_frag_ints>  (61) 
6

>  <num_repl_uniq_ints>  (61) 
3

>  <num_uniq_ints_lost>  (61) 
3

>  <num_new_uniq_ints>  (61) 
1

>  <int_check>  (61) 
True

>  <original SMILES>  (61) 
Cc1cnc(NCc2ccccc2)s1

>  <original_name>  (61) 
x0365_0A-x0310_0A_1630_B1X_rgrp-1

>  <ref_mols>  (61) 
Ax0365a,Ax0310a

>  <ref_pdb>  (61) 
Ax0310a

>  <rationale>  (61) 
FragNet: 1 round bioisosteric merging incl NCc1ccccc1 and [Xe]c1nccs1 replacing [Xe]n1cccn1

$$$$
x0365_0A-x0310_0A_1766_B1X_rgrp-0
     RDKit          3D

 17 18  0  0  0  0  0  0  0  0999 V2000
   10.3790   12.5390   22.9330 C   0  0  0  0  0  0  0  0  0  0  0  0
    9.4100   11.6180   23.6640 C   0  0  0  0  0  0  0  0  0  0  0  0
    9.4000   10.2560   23.5470 C   0  0  0  0  0  0  0  0  0  0  0  0
    8.4430    9.6120   24.3050 N   0  0  0  0  0  0  0  0  0  0  0  0
    7.7410   10.5140   24.9950 C   0  0  0  0  0  0  0  0  0  0  0  0
    6.7320   10.1810   25.8410 N   0  0  0  0  0  0  0  0  0  0  0  0
    5.8510   11.1370   26.4870 C   0  0  0  0  0  0  0  0  0  0  0  0
    6.2630   11.3280   27.7980 C   0  0  0  0  0  0  0  0  0  0  0  0
    6.1390   10.1810   28.8190 C   0  0  0  0  0  0  0  0  0  0  0  0
    6.6110   10.4410   30.2240 C   0  0  0  0  0  0  0  0  0  0  0  0
    7.1810   11.8220   30.5490 C   0  0  0  0  0  0  0  0  0  0  0  0
    7.2490   12.8000   29.5500 C   0  0  0  0  0  0  0  0  0  0  0  0
    7.8380   14.1330   29.9840 C   0  0  0  0  0  0  0  0  0  0  0  0
    8.1740   14.2760   31.3030 N   0  0  0  0  0  0  0  0  0  0  0  0
    8.0120   15.0530   29.1950 O   0  0  0  0  0  0  0  0  0  0  0  0
    6.8070   12.5610   28.2300 C   0  0  0  0  0  0  0  0  0  0  0  0
    8.2070   12.1500   24.7350 S   0  0  0  0  0  0  0  0  0  0  0  0
  1  2  1  0
  2  3  2  0
  3  4  1  0
  4  5  2  0
  5  6  1  0
  6  7  1  0
  7  8  1  0
  8  9  2  0
  9 10  1  0
 10 11  2  0
 11 12  1  0
 12 13  1  0
 13 14  1  0
 13 15  2  0
 12 16  2  0
  5 17  1  0
 17  2  1  0
 16  8  1  0
A    1
 C1 
A    2
 C2 
A    3
 C3 
A    4
 N1 
A    5
 C4 
A    6
 N2 
A    7
 C5 
A    8
 C6 
A    9
 C7 
A   10
 C8 
A   11
 C9 
A   12
 C10
A   13
 C11
A   14
 N3 
A   15
 O1 
A   16
 C12
A   17
 S1 
M  END
>  <similarity>  (62) 
1.0

>  <smiles>  (62) 
Cc1cnc(NCc2cccc(C(N)=O)c2)s1

>  <cmpd_id>  (62) 
ENAMINE:Z1606798181

>  <used_subnode>  (62) 
NCc1ccccc1

>  <used_synthon>  (62) 
[Xe]c1nccs1

>  <ref_subnode>  (62) 
NCc1ccccc1

>  <ref_synthon>  (62) 
[Xe]n1cccn1

>  <fragmentA>  (62) 
x0365_0A

>  <fragmentB>  (62) 
x0310_0A

>  <HA>  (62) 
17

>  <HBD>  (62) 
2

>  <HBA>  (62) 
4

>  <MW>  (62) 
247.077933036

>  <TPSA>  (62) 
68.00999999999999

>  <LogP>  (62) 
2.1625199999999998

>  <RBs>  (62) 
4

>  <G_bound>  (62) 
-7.077320826924126

>  <G_unbound>  (62) 
0.2892217809099522

>  <deltaG>  (62) 
-7.366542607834078

>  <comRMSD>  (62) 
0.10694319128991152

>  <substructure_overlap_check>  (62) 
True

>  <sucos>  (62) 
0.5842148814897187

>  <interactions>  (62) 
Hydrophobic_GLU-106,Hydrophobic_PRO-107,HBAcceptor_SER-105,HBDonor_SER-105

>  <total_num_ints>  (62) 
4

>  <total_num_ints_nonhyd>  (62) 
2

>  <num_uniq_frag_ints>  (62) 
6

>  <num_repl_uniq_ints>  (62) 
3

>  <num_uniq_ints_lost>  (62) 
3

>  <num_new_uniq_ints>  (62) 
1

>  <int_check>  (62) 
True

>  <original SMILES>  (62) 
Cc1cnc(NCc2cccc(C(N)=O)c2)s1

>  <original_name>  (62) 
x0365_0A-x0310_0A_1766_B1X_rgrp-0

>  <ref_mols>  (62) 
Ax0365a,Ax0310a

>  <ref_pdb>  (62) 
Ax0310a

>  <rationale>  (62) 
FragNet: 1 round bioisosteric merging incl NCc1ccccc1 and [Xe]c1nccs1 replacing [Xe]n1cccn1

$$$$
x0365_0A-x0556_0A_1128_PXX
     RDKit          3D

 22 24  0  0  0  0  0  0  0  0999 V2000
   10.5510   11.6200   22.6120 N   0  0  0  0  0  0  0  0  0  0  0  0
    9.9370   12.4500   23.4820 C   0  0  0  0  0  0  0  0  0  0  0  0
   10.3080   13.6070   23.6300 O   0  0  0  0  0  0  0  0  0  0  0  0
    8.8180   11.8550   24.2180 C   0  0  0  0  0  0  0  0  0  0  0  0
    7.8500   12.6360   24.7980 C   0  0  0  0  0  0  0  0  0  0  0  0
    6.8300   12.0110   25.4760 C   0  0  0  0  0  0  0  0  0  0  0  0
    6.8160   10.6370   25.5470 C   0  0  0  0  0  0  0  0  0  0  0  0
    5.7930    9.9860   26.2090 N   0  0  0  0  0  0  0  0  0  0  0  0
    5.0700   10.7960   27.1760 C   0  0  0  0  0  0  0  0  0  0  0  0
    5.9600   11.1440   28.3230 C   0  0  0  0  0  0  0  0  0  0  0  0
    6.2150   10.1710   29.2880 C   0  0  0  0  0  0  0  0  0  0  0  0
    7.0390   10.4470   30.3720 C   0  0  0  0  0  0  0  0  0  0  0  0
    7.6210   11.7110   30.5000 C   0  0  0  0  0  0  0  0  0  0  0  0
    8.4740   12.0020   31.5940 N   0  0  0  0  0  0  0  0  0  0  0  0
    9.3630   11.1480   32.2120 C   0  0  0  0  0  0  0  0  0  0  0  0
    9.9760   11.8540   33.2160 C   0  0  0  0  0  0  0  0  0  0  0  0
    9.4020   13.1330   33.1440 C   0  0  0  0  0  0  0  0  0  0  0  0
    8.4970   13.2340   32.1720 N   0  0  0  0  0  0  0  0  0  0  0  0
    7.3650   12.6970   29.5340 C   0  0  0  0  0  0  0  0  0  0  0  0
    6.5370   12.4120   28.4480 C   0  0  0  0  0  0  0  0  0  0  0  0
    7.7810    9.9070   24.9690 N   0  0  0  0  0  0  0  0  0  0  0  0
    8.8030   10.5150   24.2890 N   0  0  0  0  0  0  0  0  0  0  0  0
  1  2  1  0
  2  3  2  0
  2  4  1  0
  4  5  2  0
  5  6  1  0
  6  7  2  0
  7  8  1  0
  8  9  1  0
  9 10  1  0
 10 11  2  0
 11 12  1  0
 12 13  2  0
 13 14  1  0
 14 15  1  0
 15 16  2  0
 16 17  1  0
 17 18  2  0
 13 19  1  0
 19 20  2  0
  7 21  1  0
 21 22  2  0
 22  4  1  0
 20 10  1  0
 18 14  1  0
A    1
 N1 
A    2
 C1 
A    3
 O1 
A    4
 C2 
A    5
 C3 
A    6
 C4 
A    7
 C5 
A    8
 N2 
A    9
 C6 
A   10
 C7 
A   11
 C8 
A   12
 C9 
A   13
 C10
A   14
 N3 
A   15
 C11
A   16
 C12
A   17
 C13
A   18
 N4 
A   19
 C14
A   20
 C15
A   21
 N5 
A   22
 N6 
M  END
>  <similarity>  (63) 
NA

>  <smiles>  (63) 
NC(=O)c1ccc(NCc2ccc(-n3cccn3)cc2)nn1

>  <cmpd_id>  (63) 
ENAMINE:Z1343233171

>  <used_subnode>  (63) 
NA

>  <used_synthon>  (63) 
NA

>  <ref_subnode>  (63) 
NCc1ccccc1

>  <ref_synthon>  (63) 
[Xe]n1cccn1

>  <fragmentA>  (63) 
x0365_0A

>  <fragmentB>  (63) 
x0556_0A

>  <HA>  (63) 
22

>  <HBD>  (63) 
2

>  <HBA>  (63) 
6

>  <MW>  (63) 
294.122909068

>  <TPSA>  (63) 
98.72

>  <LogP>  (63) 
1.3733

>  <RBs>  (63) 
5

>  <G_bound>  (63) 
-5.41429893719397

>  <G_unbound>  (63) 
0.2139454149739591

>  <deltaG>  (63) 
-5.628244352167929

>  <comRMSD>  (63) 
0.4321130593770219

>  <substructure_overlap_check>  (63) 
True

>  <sucos>  (63) 
0.586331039079119

>  <interactions>  (63) 
Hydrophobic_PRO-107,Hydrophobic_GLU-106,HBDonor_SER-125,HBDonor_SER-105

>  <total_num_ints>  (63) 
4

>  <total_num_ints_nonhyd>  (63) 
2

>  <num_uniq_frag_ints>  (63) 
5

>  <num_repl_uniq_ints>  (63) 
3

>  <num_uniq_ints_lost>  (63) 
2

>  <num_new_uniq_ints>  (63) 
1

>  <int_check>  (63) 
True

>  <original SMILES>  (63) 
NC(=O)c1ccc(NCc2ccc(-n3cccn3)cc2)nn1

>  <original_name>  (63) 
x0365_0A-x0556_0A_1128_PXX

>  <ref_mols>  (63) 
Ax0365a,Ax0556a

>  <ref_pdb>  (63) 
Ax0310a

>  <rationale>  (63) 
FragNet: perfect merge incl NCc1ccccc1,[Xe]n1cccn1

$$$$
x0556_0A-x0310_0A_1642_PXX
     RDKit          3D

 23 25  0  0  0  0  0  0  0  0999 V2000
   12.2660   13.5710   23.9150 C   0  0  0  0  0  0  0  0  0  0  0  0
   10.9380   13.3720   23.3300 N   0  0  0  0  0  0  0  0  0  0  0  0
   10.8230   13.9500   22.0000 C   0  0  0  0  0  0  0  0  0  0  0  0
    9.7740   13.3390   24.1030 C   0  0  0  0  0  0  0  0  0  0  0  0
    9.3000   14.3080   24.6700 O   0  0  0  0  0  0  0  0  0  0  0  0
    9.0730   12.1840   24.3330 C   0  0  0  0  0  0  0  0  0  0  0  0
    9.4430   10.9950   23.7240 C   0  0  0  0  0  0  0  0  0  0  0  0
    8.7850    9.8390   23.9540 N   0  0  0  0  0  0  0  0  0  0  0  0
    7.7400    9.9290   24.8100 C   0  0  0  0  0  0  0  0  0  0  0  0
    7.2800   11.0540   25.4550 C   0  0  0  0  0  0  0  0  0  0  0  0
    6.0930   11.0400   26.3790 C   0  0  0  0  0  0  0  0  0  0  0  0
    5.4980   12.0890   26.5870 O   0  0  0  0  0  0  0  0  0  0  0  0
    5.7020    9.8250   26.9550 N   0  0  0  0  0  0  0  0  0  0  0  0
    4.7540    9.6910   28.1060 C   0  0  2  0  0  0  0  0  0  0  0  0
    4.9860    8.4190   28.9570 C   0  0  0  0  0  0  0  0  0  0  0  0
    3.4700    8.1850   29.0490 C   0  0  1  0  0  0  0  0  0  0  0  0
    2.8650    8.7410   30.2810 N   0  0  0  0  0  0  0  0  0  0  0  0
    2.3580    9.9920   30.4680 C   0  0  0  0  0  0  0  0  0  0  0  0
    1.9130    9.9950   31.8010 C   0  0  0  0  0  0  0  0  0  0  0  0
    2.2160    8.7010   32.2770 C   0  0  0  0  0  0  0  0  0  0  0  0
    2.7970    7.9320   31.3470 N   0  0  0  0  0  0  0  0  0  0  0  0
    3.3680    9.0550   27.7880 C   0  0  0  0  0  0  0  0  0  0  0  0
    7.9780   12.2250   25.2050 C   0  0  0  0  0  0  0  0  0  0  0  0
  1  2  1  0
  2  3  1  0
  2  4  1  0
  4  5  2  0
  4  6  1  0
  6  7  2  0
  7  8  1  0
  8  9  2  0
  9 10  1  0
 10 11  1  0
 11 12  2  0
 11 13  1  0
 14 13  1  6
 14 15  1  0
 15 16  1  0
 16 17  1  1
 17 18  1  0
 18 19  2  0
 19 20  1  0
 20 21  2  0
 16 22  1  0
 10 23  2  0
 23  6  1  0
 22 14  1  0
 21 17  1  0
A    1
 C1 
A    2
 N1 
A    3
 C2 
A    4
 C3 
A    5
 O1 
A    6
 C4 
A    7
 C5 
A    8
 N2 
A    9
 C6 
A   10
 C7 
A   11
 C8 
A   12
 O2 
A   13
 N3 
A   14
 C9 
A   15
 C10
A   16
 C11
A   17
 N4 
A   18
 C12
A   19
 C13
A   20
 C14
A   21
 N5 
A   22
 C15
A   23
 C16
M  END
>  <similarity>  (64) 
NA

>  <smiles>  (64) 
CN(C)C(=O)c1cncc(C(=O)NC2CC(n3cccn3)C2)c1

>  <cmpd_id>  (64) 
ENAMINE:Z4267762226

>  <used_subnode>  (64) 
NA

>  <used_synthon>  (64) 
NA

>  <ref_subnode>  (64) 
O=CNC1CCC1

>  <ref_synthon>  (64) 
[Xe]n1cccn1

>  <fragmentA>  (64) 
x0556_0A

>  <fragmentB>  (64) 
x0310_0A

>  <HA>  (64) 
23

>  <HBD>  (64) 
1

>  <HBA>  (64) 
5

>  <MW>  (64) 
313.15387484800004

>  <TPSA>  (64) 
80.12

>  <LogP>  (64) 
1.1133999999999993

>  <RBs>  (64) 
4

>  <G_bound>  (64) 
-7.005114825446304

>  <G_unbound>  (64) 
0.6007375690733687

>  <deltaG>  (64) 
-7.6058523945196725

>  <comRMSD>  (64) 
0.5542907559526519

>  <substructure_overlap_check>  (64) 
True

>  <sucos>  (64) 
0.5867395907640403

>  <interactions>  (64) 
Hydrophobic_PRO-107,Hydrophobic_HIS-104,Hydrophobic_GLU-106,HBAcceptor_SER-105,HBDonor_SER-105

>  <total_num_ints>  (64) 
5

>  <total_num_ints_nonhyd>  (64) 
2

>  <num_uniq_frag_ints>  (64) 
8

>  <num_repl_uniq_ints>  (64) 
4

>  <num_uniq_ints_lost>  (64) 
4

>  <num_new_uniq_ints>  (64) 
1

>  <int_check>  (64) 
True

>  <original SMILES>  (64) 
CN(C)C(=O)c1cncc(C(=O)NC2CC(n3cccn3)C2)c1

>  <original_name>  (64) 
x0556_0A-x0310_0A_1642_PXX

>  <ref_mols>  (64) 
Ax0556a,Ax0310a

>  <ref_pdb>  (64) 
Ax0310a

>  <rationale>  (64) 
FragNet: perfect merge incl O=CNC1CCC1,[Xe]n1cccn1

$$$$
x0884_0A-x0719_1A_527_B1X
     RDKit          3D

 21 22  0  0  0  0  0  0  0  0999 V2000
    0.8820   10.3270   29.0720 C   0  0  0  0  0  0  0  0  0  0  0  0
    2.3180   10.0070   28.6310 C   0  0  0  0  0  0  0  0  0  0  0  0
    2.7400    8.5610   28.6190 C   0  0  0  0  0  0  0  0  0  0  0  0
    4.3460    8.3710   28.1050 S   0  0  0  0  0  0  0  0  0  0  0  0
    4.5450   10.0820   27.8810 C   0  0  0  0  0  0  0  0  0  0  0  0
    5.8500   10.6530   27.3740 C   0  0  0  0  0  0  0  0  0  0  0  0
    5.7390   12.0230   26.6520 C   0  0  0  0  0  0  0  0  0  0  0  0
    4.7010   12.6640   26.7800 O   0  0  0  0  0  0  0  0  0  0  0  0
    6.8380   12.4480   25.9150 N   0  0  0  0  0  0  0  0  0  0  0  0
    7.7140   11.7810   25.0290 C   0  0  0  0  0  0  0  0  0  0  0  0
    7.9550   10.4150   25.0780 C   0  0  0  0  0  0  0  0  0  0  0  0
    8.8500    9.8080   24.1990 C   0  0  0  0  0  0  0  0  0  0  0  0
    9.5300   10.5560   23.2540 C   0  0  0  0  0  0  0  0  0  0  0  0
    9.2950   11.9170   23.1780 C   0  0  0  0  0  0  0  0  0  0  0  0
    8.3780   12.5480   24.0490 C   0  0  0  0  0  0  0  0  0  0  0  0
    8.1570   13.9430   23.8980 C   0  0  0  0  0  0  0  0  0  0  0  0
    7.4570   14.2950   22.2500 S   0  0  0  0  0  6  0  0  0  0  0  0
    6.1350   15.3150   22.5600 N   0  0  0  0  0  0  0  0  0  0  0  0
    8.3970   15.0030   21.4110 O   0  0  0  0  0  0  0  0  0  0  0  0
    6.7910   13.1710   21.7230 O   0  0  0  0  0  0  0  0  0  0  0  0
    3.3980   10.8250   28.2030 C   0  0  0  0  0  0  0  0  0  0  0  0
  1  2  1  0
  2  3  2  0
  3  4  1  0
  4  5  1  0
  5  6  1  0
  6  7  1  0
  7  8  2  0
  7  9  1  0
  9 10  1  0
 10 11  2  0
 11 12  1  0
 12 13  2  0
 13 14  1  0
 14 15  2  0
 15 16  1  0
 16 17  1  0
 17 18  1  0
 17 19  2  0
 17 20  2  0
  5 21  2  0
 21  2  1  0
 15 10  1  0
A    1
 C1 
A    2
 C2 
A    3
 C3 
A    4
 S1 
A    5
 C4 
A    6
 C5 
A    7
 C6 
A    8
 O1 
A    9
 N1 
A   10
 C7 
A   11
 C8 
A   12
 C9 
A   13
 C10
A   14
 C11
A   15
 C12
A   16
 C13
A   17
 S2 
A   18
 N2 
A   19
 O2 
A   20
 O3 
A   21
 C14
M  END
>  <similarity>  (65) 
1.0

>  <smiles>  (65) 
Cc1csc(CC(=O)Nc2ccccc2CS(N)(=O)=O)c1

>  <cmpd_id>  (65) 
ENAMINE:PV-002778889905

>  <used_subnode>  (65) 
CC(=O)Nc1ccccc1

>  <used_synthon>  (65) 
NS(=O)(=O)C[Xe]

>  <ref_subnode>  (65) 
CC(=O)Nc1ccccc1

>  <ref_synthon>  (65) 
CC([Xe])CS(N)(=O)=O

>  <fragmentA>  (65) 
x0884_0A

>  <fragmentB>  (65) 
x0719_1A

>  <HA>  (65) 
21

>  <HBD>  (65) 
2

>  <HBA>  (65) 
4

>  <MW>  (65) 
324.06023437199997

>  <TPSA>  (65) 
89.25999999999999

>  <LogP>  (65) 
2.02622

>  <RBs>  (65) 
5

>  <G_bound>  (65) 
-7.597487802080705

>  <G_unbound>  (65) 
1.8828598101385627

>  <deltaG>  (65) 
-9.480347612219267

>  <comRMSD>  (65) 
0.66527802320871

>  <substructure_overlap_check>  (65) 
True

>  <sucos>  (65) 
0.5902012742759746

>  <interactions>  (65) 
HBDonor_GLU-85,Hydrophobic_PRO-107,HBAcceptor_GLY-127,Hydrophobic_GLU-106,Hydrophobic_HIS-104

>  <total_num_ints>  (65) 
5

>  <total_num_ints_nonhyd>  (65) 
2

>  <num_uniq_frag_ints>  (65) 
3

>  <num_repl_uniq_ints>  (65) 
2

>  <num_uniq_ints_lost>  (65) 
1

>  <num_new_uniq_ints>  (65) 
3

>  <int_check>  (65) 
True

>  <original SMILES>  (65) 
Cc1csc(CC(=O)Nc2ccccc2CS(N)(=O)=O)c1

>  <original_name>  (65) 
x0884_0A-x0719_1A_527_B1X

>  <ref_mols>  (65) 
Ax0884a,Ax0719a

>  <ref_pdb>  (65) 
Ax0310a

>  <rationale>  (65) 
FragNet: 1 round bioisosteric merging incl CC(=O)Nc1ccccc1 and NS(=O)(=O)C[Xe] replacing CC([Xe])CS(N)(=O)=O

$$$$
x0365_0A-x0310_0A_1919_B1X
     RDKit          3D

 23 25  0  0  0  0  0  0  0  0999 V2000
    9.8870   13.7370   22.1420 C   0  0  0  0  0  0  0  0  0  0  0  0
   10.4150   12.6780   22.9740 N   0  0  0  0  0  0  0  0  0  0  0  0
   11.6030   13.1290   23.7060 C   0  0  0  0  0  0  0  0  0  0  0  0
    9.4560   11.9180   23.6640 C   0  0  0  0  0  0  0  0  0  0  0  0
    8.4790   12.5970   24.4720 C   0  0  0  0  0  0  0  0  0  0  0  0
    7.5050   11.9250   25.1770 C   0  0  0  0  0  0  0  0  0  0  0  0
    7.4400   10.5550   25.1240 C   0  0  0  0  0  0  0  0  0  0  0  0
    6.3950    9.9780   25.8750 N   0  0  0  0  0  0  0  0  0  0  0  0
    5.5050   10.7550   26.7430 C   0  0  0  0  0  0  0  0  0  0  0  0
    6.1550   11.1600   28.0330 C   0  0  0  0  0  0  0  0  0  0  0  0
    6.2090   10.2610   29.1040 C   0  0  0  0  0  0  0  0  0  0  0  0
    6.8140   10.6300   30.2990 C   0  0  0  0  0  0  0  0  0  0  0  0
    7.3720   11.9050   30.4380 C   0  0  0  0  0  0  0  0  0  0  0  0
    7.3300   12.8310   29.3780 C   0  0  0  0  0  0  0  0  0  0  0  0
    7.9120   14.1770   29.4910 C   0  0  0  0  0  0  0  0  0  0  0  0
    7.7170   15.1290   28.4820 C   0  0  0  0  0  0  0  0  0  0  0  0
    8.2800   16.3880   28.6190 C   0  0  0  0  0  0  0  0  0  0  0  0
    9.0200   16.7640   29.6830 N   0  0  0  0  0  0  0  0  0  0  0  0
    9.2030   15.8390   30.6470 C   0  0  0  0  0  0  0  0  0  0  0  0
    8.6800   14.5550   30.6000 C   0  0  0  0  0  0  0  0  0  0  0  0
    6.7130   12.4360   28.1830 C   0  0  0  0  0  0  0  0  0  0  0  0
    8.3630    9.8060   24.3540 N   0  0  0  0  0  0  0  0  0  0  0  0
    9.3170   10.5130   23.6680 C   0  0  0  0  0  0  0  0  0  0  0  0
  1  2  1  0
  2  3  1  0
  2  4  1  0
  4  5  2  0
  5  6  1  0
  6  7  2  0
  7  8  1  0
  8  9  1  0
  9 10  1  0
 10 11  2  0
 11 12  1  0
 12 13  2  0
 13 14  1  0
 14 15  1  0
 15 16  2  0
 16 17  1  0
 17 18  2  0
 18 19  1  0
 19 20  2  0
 14 21  2  0
  7 22  1  0
 22 23  2  0
 23  4  1  0
 21 10  1  0
 20 15  1  0
A    1
 C1 
A    2
 N1 
A    3
 C2 
A    4
 C3 
A    5
 C4 
A    6
 C5 
A    7
 C6 
A    8
 N2 
A    9
 C7 
A   10
 C8 
A   11
 C9 
A   12
 C10
A   13
 C11
A   14
 C12
A   15
 C13
A   16
 C14
A   17
 C15
A   18
 N3 
A   19
 C16
A   20
 C17
A   21
 C18
A   22
 N4 
A   23
 C19
M  END
>  <similarity>  (66) 
1.0

>  <smiles>  (66) 
CN(C)c1ccc(NCc2cccc(-c3ccncc3)c2)nc1

>  <cmpd_id>  (66) 
ENAMINE:Z1454613955

>  <used_subnode>  (66) 
NCc1ccccc1

>  <used_synthon>  (66) 
[Xe]c1ccncc1

>  <ref_subnode>  (66) 
NCc1ccccc1

>  <ref_synthon>  (66) 
[Xe]n1cccn1

>  <fragmentA>  (66) 
x0365_0A

>  <fragmentB>  (66) 
x0310_0A

>  <HA>  (66) 
23

>  <HBD>  (66) 
1

>  <HBA>  (66) 
4

>  <MW>  (66) 
304.16879664000004

>  <TPSA>  (66) 
41.05

>  <LogP>  (66) 
3.8217000000000017

>  <RBs>  (66) 
5

>  <G_bound>  (66) 
-8.067565788855546

>  <G_unbound>  (66) 
0.29502732050096764

>  <deltaG>  (66) 
-8.362593109356514

>  <comRMSD>  (66) 
0.4272719845374888

>  <substructure_overlap_check>  (66) 
True

>  <sucos>  (66) 
0.5904525491733793

>  <interactions>  (66) 
Hydrophobic_PRO-107,Hydrophobic_GLU-106,HBAcceptor_SER-105,HBDonor_SER-105

>  <total_num_ints>  (66) 
4

>  <total_num_ints_nonhyd>  (66) 
2

>  <num_uniq_frag_ints>  (66) 
6

>  <num_repl_uniq_ints>  (66) 
3

>  <num_uniq_ints_lost>  (66) 
3

>  <num_new_uniq_ints>  (66) 
1

>  <int_check>  (66) 
True

>  <original SMILES>  (66) 
CN(C)c1ccc(NCc2cccc(-c3ccncc3)c2)nc1

>  <original_name>  (66) 
x0365_0A-x0310_0A_1919_B1X

>  <ref_mols>  (66) 
Ax0365a,Ax0310a

>  <ref_pdb>  (66) 
Ax0310a

>  <rationale>  (66) 
FragNet: 1 round bioisosteric merging incl NCc1ccccc1 and [Xe]c1ccncc1 replacing [Xe]n1cccn1

$$$$
x0556_0A-x0310_0A_2147_B1X
     RDKit          3D

 24 27  0  0  0  0  0  0  0  0999 V2000
    3.6400    6.1620   28.1650 C   0  0  0  0  0  0  0  0  0  0  0  0
    2.8780    7.3330   28.2690 N   0  0  0  0  0  0  0  0  0  0  0  0
    1.6930    7.4360   27.5860 C   0  0  0  0  0  0  0  0  0  0  0  0
    1.7340    8.0170   26.5150 O   0  0  0  0  0  0  0  0  0  0  0  0
    0.4200    6.9320   27.9320 C   0  0  0  0  0  0  0  0  0  0  0  0
    0.0310    5.5500   27.9870 C   0  0  0  0  0  0  0  0  0  0  0  0
   -1.2690    5.4960   28.3520 N   0  0  0  0  0  0  0  0  0  0  0  0
   -1.7040    6.7950   28.5260 N   0  0  0  0  0  0  0  0  0  0  0  0
   -0.7560    7.7720   28.2990 C   0  0  0  0  0  0  0  0  0  0  0  0
    3.5560    8.5160   28.9210 C   0  0  2  0  0  0  0  0  0  0  0  0
    3.7510    9.8020   28.2900 C   0  0  0  0  0  0  0  0  0  0  0  0
    4.7490    9.2020   27.4650 C   0  0  1  0  0  0  0  0  0  0  0  0
    6.0200    9.8260   26.9860 N   0  0  0  0  0  0  0  0  0  0  0  0
    6.1910   10.9380   26.1440 C   0  0  0  0  0  0  0  0  0  0  0  0
    5.4050   11.8870   26.1910 O   0  0  0  0  0  0  0  0  0  0  0  0
    7.3950   10.8700   25.2260 C   0  0  0  0  0  0  0  0  0  0  0  0
    7.8960    9.6930   24.8080 N   0  0  0  0  0  0  0  0  0  0  0  0
    8.9400    9.9940   24.0310 N   0  0  0  0  0  0  0  0  0  0  0  0
    9.1290   11.3130   23.9400 C   0  0  0  0  0  0  0  0  0  0  0  0
    8.1750   11.9100   24.6720 C   0  0  0  0  0  0  0  0  0  0  0  0
    8.3160   13.3780   24.6160 C   0  0  0  0  0  0  0  0  0  0  0  0
    9.7460   13.5370   23.9860 C   0  0  0  0  0  0  0  0  0  0  0  0
   10.0840   12.1980   23.2700 C   0  0  0  0  0  0  0  0  0  0  0  0
    5.0470    8.3990   28.7340 C   0  0  0  0  0  0  0  0  0  0  0  0
  1  2  1  0
  2  3  1  0
  3  4  2  0
  3  5  1  0
  5  6  1  0
  6  7  2  0
  7  8  1  0
  8  9  1  0
 10  2  1  6
 10 11  1  0
 11 12  1  0
 12 13  1  1
 13 14  1  0
 14 15  2  0
 14 16  1  0
 16 17  2  0
 17 18  1  0
 18 19  1  0
 19 20  2  0
 20 21  1  0
 21 22  1  0
 22 23  1  0
 12 24  1  0
  9  5  2  0
 24 10  1  0
 20 16  1  0
 23 19  1  0
A    1
 C1 
A    2
 N1 
A    3
 C2 
A    4
 O1 
A    5
 C3 
A    6
 C4 
A    7
 N2 
A    8
 N3 
A    9
 C5 
A   10
 C6 
A   11
 C7 
A   12
 C8 
A   13
 N4 
A   14
 C9 
A   15
 O2 
A   16
 C10
A   17
 N5 
A   18
 N6 
A   19
 C11
A   20
 C12
A   21
 C13
A   22
 C14
A   23
 C15
A   24
 C16
M  END
>  <similarity>  (67) 
1.0

>  <smiles>  (67) 
CN(C(=O)c1cn[nH]c1)C1CC(NC(=O)c2n[nH]c3c2CCC3)C1

>  <cmpd_id>  (67) 
ENAMINE:PV-000269760888

>  <used_subnode>  (67) 
O=CNC1CCC1

>  <used_synthon>  (67) 
[Xe]c1n[nH]c2c1CCC2

>  <ref_subnode>  (67) 
O=CNC1CCC1

>  <ref_synthon>  (67) 
[Xe]c1cn[nH]c1

>  <fragmentA>  (67) 
x0556_0A

>  <fragmentB>  (67) 
x0310_0A

>  <HA>  (67) 
24

>  <HBD>  (67) 
3

>  <HBA>  (67) 
4

>  <MW>  (67) 
328.16477388

>  <TPSA>  (67) 
106.77000000000001

>  <LogP>  (67) 
0.6544999999999994

>  <RBs>  (67) 
4

>  <G_bound>  (67) 
-5.2212857092536336

>  <G_unbound>  (67) 
0.980541484961739

>  <deltaG>  (67) 
-6.201827194215372

>  <comRMSD>  (67) 
1.187689211880712

>  <substructure_overlap_check>  (67) 
True

>  <sucos>  (67) 
0.5919283659153366

>  <interactions>  (67) 
HBAcceptor_GLY-130,Hydrophobic_PRO-107,Hydrophobic_GLU-106,HBDonor_SER-105,Hydrophobic_HIS-104

>  <total_num_ints>  (67) 
5

>  <total_num_ints_nonhyd>  (67) 
2

>  <num_uniq_frag_ints>  (67) 
8

>  <num_repl_uniq_ints>  (67) 
4

>  <num_uniq_ints_lost>  (67) 
4

>  <num_new_uniq_ints>  (67) 
1

>  <int_check>  (67) 
True

>  <original SMILES>  (67) 
CN(C(=O)c1cn[nH]c1)C1CC(NC(=O)c2n[nH]c3c2CCC3)C1

>  <original_name>  (67) 
x0556_0A-x0310_0A_2147_B1X

>  <ref_mols>  (67) 
Ax0556a,Ax0310a

>  <ref_pdb>  (67) 
Ax0310a

>  <rationale>  (67) 
FragNet: 1 round bioisosteric merging incl O=CNC1CCC1 and [Xe]c1n[nH]c2c1CCC2 replacing [Xe]c1cn[nH]c1

$$$$
x0365_0A-x0719_1A_100_B1X
     RDKit          3D

 23 24  0  0  0  0  0  0  0  0999 V2000
   10.0430    9.3790   22.9810 C   0  0  0  0  0  0  0  0  0  0  0  0
    9.0960   10.1890   23.7010 N   0  0  0  0  0  0  0  0  0  0  0  0
    8.9340   11.5240   23.6170 C   0  0  0  0  0  0  0  0  0  0  0  0
    7.7980   11.9090   24.5320 C   0  0  0  0  0  0  0  0  0  0  0  0
    7.3170   13.4020   24.6710 C   0  0  0  0  0  0  0  0  0  0  0  0
    7.4730   14.3030   23.4870 N   0  0  0  0  0  0  0  0  0  0  0  0
    7.8720   13.9890   22.2190 C   0  0  0  0  0  0  0  0  0  0  0  0
    7.1240   13.4230   21.4780 O   0  0  0  0  0  0  0  0  0  0  0  0
    9.1870   14.3880   21.9820 O   0  0  0  0  0  0  0  0  0  0  0  0
    9.9160   15.0340   20.8190 C   0  0  0  0  0  0  0  0  0  0  0  0
    9.2080   16.1340   20.3380 C   0  0  0  0  0  0  0  0  0  0  0  0
   10.1810   14.2990   19.5010 C   0  0  0  0  0  0  0  0  0  0  0  0
   11.2930   15.4070   21.4060 C   0  0  0  0  0  0  0  0  0  0  0  0
    7.4400   10.6160   25.0830 C   0  0  0  0  0  0  0  0  0  0  0  0
    6.4610   10.3330   25.9860 N   0  0  0  0  0  0  0  0  0  0  0  0
    5.7960   11.3150   26.8320 C   0  0  0  0  0  0  0  0  0  0  0  0
    6.1330   11.2380   28.1870 C   0  0  0  0  0  0  0  0  0  0  0  0
    6.1090   10.0350   28.8820 C   0  0  0  0  0  0  0  0  0  0  0  0
    6.5710   10.2130   30.5230 S   0  0  0  0  0  0  0  0  0  0  0  0
    6.8090   11.9010   30.3410 C   0  0  0  0  0  0  0  0  0  0  0  0
    6.5350   12.3020   29.0360 C   0  0  0  0  0  0  0  0  0  0  0  0
    6.6480   13.5760   28.6310 F   0  0  0  0  0  0  0  0  0  0  0  0
    8.2260    9.6300   24.5680 N   0  0  0  0  0  0  0  0  0  0  0  0
  1  2  1  0
  2  3  1  0
  3  4  2  0
  4  5  1  0
  5  6  1  0
  6  7  1  0
  7  8  2  0
  7  9  1  0
  9 10  1  0
 10 11  1  0
 10 12  1  0
 10 13  1  0
  4 14  1  0
 14 15  1  0
 15 16  1  0
 16 17  1  0
 17 18  2  0
 18 19  1  0
 19 20  1  0
 20 21  2  0
 21 22  1  0
 14 23  2  0
 23  2  1  0
 21 17  1  0
A    1
 C1 
A    2
 N1 
A    3
 C2 
A    4
 C3 
A    5
 C4 
A    6
 N2 
A    7
 C5 
A    8
 O1 
A    9
 O2 
A   10
 C6 
A   11
 C7 
A   12
 C8 
A   13
 C9 
A   14
 C10
A   15
 N3 
A   16
 C11
A   17
 C12
A   18
 C13
A   19
 S1 
A   20
 C14
A   21
 C15
A   22
 F1 
A   23
 N4 
M  END
>  <similarity>  (68) 
1.0

>  <smiles>  (68) 
Cn1cc(CNC(=O)OC(C)(C)C)c(NCc2cscc2F)n1

>  <cmpd_id>  (68) 
ENAMINE:Z4084523130

>  <used_subnode>  (68) 
CNc1ccn(C)n1

>  <used_synthon>  (68) 
CC(C)(C)OC(=O)NC[Xe]

>  <ref_subnode>  (68) 
CNc1ccn(C)n1

>  <ref_synthon>  (68) 
CC([Xe])CS(N)(=O)=O

>  <fragmentA>  (68) 
x0365_0A

>  <fragmentB>  (68) 
x0719_1A

>  <HA>  (68) 
23

>  <HBD>  (68) 
2

>  <HBA>  (68) 
6

>  <MW>  (68) 
340.13692513200004

>  <TPSA>  (68) 
68.18

>  <LogP>  (68) 
3.257500000000001

>  <RBs>  (68) 
5

>  <G_bound>  (68) 
-8.271806077940928

>  <G_unbound>  (68) 
0.6466852613503562

>  <deltaG>  (68) 
-8.918491339291284

>  <comRMSD>  (68) 
1.1014790518013662

>  <substructure_overlap_check>  (68) 
True

>  <sucos>  (68) 
0.5925432120373765

>  <interactions>  (68) 
Hydrophobic_TYR-90,Hydrophobic_PRO-107,HBAcceptor_GLY-127,Hydrophobic_VAL-84,Hydrophobic_GLU-106,HBDonor_SER-105

>  <total_num_ints>  (68) 
6

>  <total_num_ints_nonhyd>  (68) 
2

>  <num_uniq_frag_ints>  (68) 
4

>  <num_repl_uniq_ints>  (68) 
4

>  <num_uniq_ints_lost>  (68) 
0

>  <num_new_uniq_ints>  (68) 
2

>  <int_check>  (68) 
True

>  <original SMILES>  (68) 
Cn1cc(CNC(=O)OC(C)(C)C)c(NCc2cscc2F)n1

>  <original_name>  (68) 
x0365_0A-x0719_1A_100_B1X

>  <ref_mols>  (68) 
Ax0365a,Ax0719a

>  <ref_pdb>  (68) 
Ax0310a

>  <rationale>  (68) 
FragNet: 1 round bioisosteric merging incl CNc1ccn(C)n1 and CC(C)(C)OC(=O)NC[Xe] replacing CC([Xe])CS(N)(=O)=O

$$$$
x0365_0A-x0310_0A_2938_B1X_rgrp-0
     RDKit          3D

 20 21  0  0  0  0  0  0  0  0999 V2000
   12.1620   14.0420   22.5230 C   0  0  0  0  0  0  0  0  0  0  0  0
   11.2360   13.6360   23.4010 C   0  0  0  0  0  0  0  0  0  0  0  0
   11.1250   14.1800   24.5000 O   0  0  0  0  0  0  0  0  0  0  0  0
   10.4630   12.5830   22.9490 N   0  0  0  0  0  0  0  0  0  0  0  0
    9.4160   11.9940   23.6890 C   0  0  0  0  0  0  0  0  0  0  0  0
    9.3240   10.4700   23.7400 C   0  0  0  0  0  0  0  0  0  0  0  0
    8.1860    9.9920   24.5540 C   0  0  0  0  0  0  0  0  0  0  0  0
    7.3000   10.8740   25.1940 C   0  0  0  0  0  0  0  0  0  0  0  0
    6.2850   10.3280   25.8910 N   0  0  0  0  0  0  0  0  0  0  0  0
    5.6260   11.0300   26.7910 C   0  0  0  0  0  0  0  0  0  0  0  0
    6.1530   11.2380   28.1530 C   0  0  0  0  0  0  0  0  0  0  0  0
    6.8510   12.5640   28.3510 C   0  0  0  0  0  0  0  0  0  0  0  0
    7.4330   12.8490   29.7290 C   0  0  0  0  0  0  0  0  0  0  0  0
    8.0620   14.0030   29.9760 F   0  0  0  0  0  0  0  0  0  0  0  0
    7.2820   11.7850   30.8190 C   0  0  0  0  0  0  0  0  0  0  0  0
    6.5980   10.5970   30.4850 C   0  0  0  0  0  0  0  0  0  0  0  0
    6.0440   10.3200   29.2090 C   0  0  0  0  0  0  0  0  0  0  0  0
    5.3180    8.9970   29.0060 C   0  0  0  0  0  0  0  0  0  0  0  0
    7.4140   12.2060   25.1270 N   0  0  0  0  0  0  0  0  0  0  0  0
    8.4470   12.7250   24.3930 C   0  0  0  0  0  0  0  0  0  0  0  0
  1  2  1  0
  2  3  2  0
  2  4  1  0
  4  5  1  0
  5  6  2  0
  6  7  1  0
  7  8  2  0
  8  9  1  0
  9 10  1  0
 10 11  1  0
 11 12  2  0
 12 13  1  0
 13 14  1  0
 13 15  2  0
 15 16  1  0
 16 17  2  0
 17 18  1  0
  8 19  1  0
 19 20  2  0
 20  5  1  0
 17 11  1  0
A    1
 C1 
A    2
 C2 
A    3
 O1 
A    4
 N1 
A    5
 C3 
A    6
 C4 
A    7
 C5 
A    8
 C6 
A    9
 N2 
A   10
 C7 
A   11
 C8 
A   12
 C9 
A   13
 C10
A   14
 F1 
A   15
 C11
A   16
 C12
A   17
 C13
A   18
 C14
A   19
 N3 
A   20
 C15
M  END
>  <similarity>  (69) 
1.0

>  <smiles>  (69) 
CC(=O)Nc1ccc(NCc2cc(F)ccc2C)nc1

>  <cmpd_id>  (69) 
ENAMINE:PV-002401428254

>  <used_subnode>  (69) 
NCc1ccccc1

>  <used_synthon>  (69) 
CC(=O)N[Xe]

>  <ref_subnode>  (69) 
NCc1ccccc1

>  <ref_synthon>  (69) 
N#CCC(=O)N[Xe]

>  <fragmentA>  (69) 
x0365_0A

>  <fragmentB>  (69) 
x0310_0A

>  <HA>  (69) 
20

>  <HBD>  (69) 
2

>  <HBA>  (69) 
3

>  <MW>  (69) 
273.127740352

>  <TPSA>  (69) 
54.02

>  <LogP>  (69) 
3.0996200000000016

>  <RBs>  (69) 
4

>  <G_bound>  (69) 
-8.865698099051592

>  <G_unbound>  (69) 
0.08093115072928903

>  <deltaG>  (69) 
-8.94662924978088

>  <comRMSD>  (69) 
0.18702266944825405

>  <substructure_overlap_check>  (69) 
True

>  <sucos>  (69) 
0.5956202216546826

>  <interactions>  (69) 
Hydrophobic_GLU-106,Hydrophobic_PRO-107,Hydrophobic_HIS-21,HBDonor_SER-105,HBDonor_SER-125

>  <total_num_ints>  (69) 
5

>  <total_num_ints_nonhyd>  (69) 
2

>  <num_uniq_frag_ints>  (69) 
6

>  <num_repl_uniq_ints>  (69) 
5

>  <num_uniq_ints_lost>  (69) 
1

>  <num_new_uniq_ints>  (69) 
0

>  <int_check>  (69) 
True

>  <original SMILES>  (69) 
CC(=O)Nc1ccc(NCc2cc(F)ccc2C)nc1

>  <original_name>  (69) 
x0365_0A-x0310_0A_2938_B1X_rgrp-0

>  <ref_mols>  (69) 
Ax0365a,Ax0310a

>  <ref_pdb>  (69) 
Ax0310a

>  <rationale>  (69) 
FragNet: 1 round bioisosteric merging incl NCc1ccccc1 and CC(=O)N[Xe] replacing N#CCC(=O)N[Xe]

$$$$
x0310_0A-x0556_0A_229_B1X_rgrp-4
     RDKit          3D

 15 15  0  0  0  0  0  0  0  0999 V2000
   12.0410   16.2040   22.1610 N   0  0  0  0  0  0  0  0  0  0  0  0
   12.1570   15.0800   22.4030 C   0  0  0  0  0  0  0  0  0  0  0  0
   12.2060   13.6570   22.6980 C   0  0  0  0  0  0  0  0  0  0  0  0
   11.0360   13.2460   23.5490 C   0  0  0  0  0  0  0  0  0  0  0  0
   10.8120   13.8600   24.5880 O   0  0  0  0  0  0  0  0  0  0  0  0
   10.2810   12.1740   23.0940 N   0  0  0  0  0  0  0  0  0  0  0  0
    9.2130   11.6830   23.8760 C   0  0  0  0  0  0  0  0  0  0  0  0
    8.4500   12.6880   24.4480 C   0  0  0  0  0  0  0  0  0  0  0  0
    7.3780   12.3870   25.2690 C   0  0  0  0  0  0  0  0  0  0  0  0
    7.0740   11.0750   25.5150 C   0  0  0  0  0  0  0  0  0  0  0  0
    5.9040   10.8270   26.4320 C   0  0  0  0  0  0  0  0  0  0  0  0
    5.9150    9.7440   27.2610 N   0  0  0  0  0  0  0  0  0  0  0  0
    4.9480   11.5890   26.4840 O   0  0  0  0  0  0  0  0  0  0  0  0
    7.7840   10.0480   24.9690 N   0  0  0  0  0  0  0  0  0  0  0  0
    8.8440   10.3680   24.1560 C   0  0  0  0  0  0  0  0  0  0  0  0
  1  2  3  0
  2  3  1  0
  3  4  1  0
  4  5  2  0
  4  6  1  0
  6  7  1  0
  7  8  2  0
  8  9  1  0
  9 10  2  0
 10 11  1  0
 11 12  1  0
 11 13  2  0
 10 14  1  0
 14 15  2  0
 15  7  1  0
A    1
 N1 
A    2
 C1 
A    3
 C2 
A    4
 C3 
A    5
 O1 
A    6
 N2 
A    7
 C4 
A    8
 C5 
A    9
 C6 
A   10
 C7 
A   11
 C8 
A   12
 N3 
A   13
 O2 
A   14
 N4 
A   15
 C9 
M  END
>  <similarity>  (70) 
1.0

>  <smiles>  (70) 
N#CCC(=O)Nc1ccc(C(N)=O)nc1

>  <cmpd_id>  (70) 
ENAMINE:Z1688566756

>  <used_subnode>  (70) 
N#CCC(N)=O

>  <used_synthon>  (70) 
[Xe]c1cccnc1

>  <ref_subnode>  (70) 
N#CCC(N)=O

>  <ref_synthon>  (70) 
[Xe]n1cccn1

>  <fragmentA>  (70) 
x0310_0A

>  <fragmentB>  (70) 
x0556_0A

>  <HA>  (70) 
15

>  <HBD>  (70) 
2

>  <HBA>  (70) 
4

>  <MW>  (70) 
204.064725496

>  <TPSA>  (70) 
108.86999999999999

>  <LogP>  (70) 
0.03267999999999971

>  <RBs>  (70) 
3

>  <G_bound>  (70) 
-6.147988603887065

>  <G_unbound>  (70) 
0.49450099410474374

>  <deltaG>  (70) 
-6.642489597991808

>  <comRMSD>  (70) 
0.3791155970169532

>  <substructure_overlap_check>  (70) 
True

>  <sucos>  (70) 
0.5983238281374272

>  <interactions>  (70) 
Hydrophobic_PRO-107,Hydrophobic_HIS-21,HBDonor_SER-105,HBDonor_SER-125

>  <total_num_ints>  (70) 
4

>  <total_num_ints_nonhyd>  (70) 
2

>  <num_uniq_frag_ints>  (70) 
8

>  <num_repl_uniq_ints>  (70) 
4

>  <num_uniq_ints_lost>  (70) 
4

>  <num_new_uniq_ints>  (70) 
0

>  <int_check>  (70) 
True

>  <original SMILES>  (70) 
N#CCC(=O)Nc1ccc(C(N)=O)nc1

>  <original_name>  (70) 
x0310_0A-x0556_0A_229_B1X_rgrp-4

>  <ref_mols>  (70) 
Ax0310a,Ax0556a

>  <ref_pdb>  (70) 
Ax0310a

>  <rationale>  (70) 
FragNet: 1 round bioisosteric merging incl N#CCC(N)=O and [Xe]c1cccnc1 replacing [Xe]n1cccn1

$$$$
x0884_0A-x0719_1A_640_B1X
     RDKit          3D

 22 23  0  0  0  0  0  0  0  0999 V2000
    6.0500   15.4370   22.5560 N   0  0  0  0  0  0  0  0  0  0  0  0
    7.2850   14.3300   22.3030 S   0  0  0  0  0  6  0  0  0  0  0  0
    8.3160   14.9280   21.4800 O   0  0  0  0  0  0  0  0  0  0  0  0
    6.5730   13.2140   21.8170 O   0  0  0  0  0  0  0  0  0  0  0  0
    7.9540   13.9180   23.9510 C   0  0  0  0  0  0  0  0  0  0  0  0
    8.3340   12.4620   24.0190 C   0  0  0  0  0  0  0  0  0  0  0  0
    7.5300   11.6590   24.8370 C   0  0  0  0  0  0  0  0  0  0  0  0
    7.7690   10.3070   24.9500 C   0  0  0  0  0  0  0  0  0  0  0  0
    8.8140    9.7390   24.2440 C   0  0  0  0  0  0  0  0  0  0  0  0
    9.6320   10.5050   23.4410 C   0  0  0  0  0  0  0  0  0  0  0  0
    9.4190   11.8740   23.3140 C   0  0  0  0  0  0  0  0  0  0  0  0
   10.2620   12.6430   22.4920 N   0  0  0  0  0  0  0  0  0  0  0  0
   11.2770   13.4770   22.8760 C   0  0  0  0  0  0  0  0  0  0  0  0
   11.9920   14.1340   22.1340 O   0  0  0  0  0  0  0  0  0  0  0  0
   11.4000   13.4960   24.2440 N   0  0  0  0  0  0  0  0  0  0  0  0
   12.5910   14.0760   24.7630 C   0  0  0  0  0  0  0  0  0  0  0  0
   12.4420   14.9120   26.0090 C   0  0  0  0  0  0  0  0  0  0  0  0
   13.7620   14.9470   26.8350 C   0  0  0  0  0  0  0  0  0  0  0  0
   13.6220   14.6820   28.3350 C   0  0  0  0  0  0  0  0  0  0  0  0
   14.4280   13.5770   28.7550 O   0  0  0  0  0  0  0  0  0  0  0  0
   13.9340   13.4080   24.5780 C   0  0  0  0  0  0  0  0  0  0  0  0
   13.5390   14.5540   23.7080 C   0  0  0  0  0  0  0  0  0  0  0  0
  1  2  1  0
  2  3  2  0
  2  4  2  0
  2  5  1  0
  5  6  1  0
  6  7  2  0
  7  8  1  0
  8  9  2  0
  9 10  1  0
 10 11  2  0
 11 12  1  0
 12 13  1  0
 13 14  2  0
 13 15  1  0
 15 16  1  0
 16 17  1  0
 17 18  1  0
 18 19  1  0
 19 20  1  0
 16 21  1  0
 21 22  1  0
 11  6  1  0
 22 16  1  0
A    1
 N1 
A    2
 S1 
A    3
 O1 
A    4
 O2 
A    5
 C1 
A    6
 C2 
A    7
 C3 
A    8
 C4 
A    9
 C5 
A   10
 C6 
A   11
 C7 
A   12
 N2 
A   13
 C8 
A   14
 O3 
A   15
 N3 
A   16
 C9 
A   17
 C10
A   18
 C11
A   19
 C12
A   20
 O4 
A   21
 C13
A   22
 C14
M  END
>  <similarity>  (71) 
1.0

>  <smiles>  (71) 
NS(=O)(=O)Cc1ccccc1NC(=O)NC1(CCCO)CC1

>  <cmpd_id>  (71) 
ENAMINE:PV-002756151763

>  <used_subnode>  (71) 
NC(=O)Nc1ccccc1

>  <used_synthon>  (71) 
NS(=O)(=O)C[Xe]

>  <ref_subnode>  (71) 
NC(=O)Nc1ccccc1

>  <ref_synthon>  (71) 
CC([Xe])CS(N)(=O)=O

>  <fragmentA>  (71) 
x0884_0A

>  <fragmentB>  (71) 
x0719_1A

>  <HA>  (71) 
22

>  <HBD>  (71) 
4

>  <HBA>  (71) 
4

>  <MW>  (71) 
327.125277152

>  <TPSA>  (71) 
121.52

>  <LogP>  (71) 
0.9016999999999997

>  <RBs>  (71) 
7

>  <G_bound>  (71) 
-4.849811901987551

>  <G_unbound>  (71) 
3.211413013523878

>  <deltaG>  (71) 
-8.06122491551143

>  <comRMSD>  (71) 
0.6722209719171105

>  <substructure_overlap_check>  (71) 
True

>  <sucos>  (71) 
0.5987205670708796

>  <interactions>  (71) 
HBDonor_GLU-85,Hydrophobic_PRO-107,Hydrophobic_TYR-89,Hydrophobic_HIS-21,HBAcceptor_GLY-127,HBDonor_SER-125,Hydrophobic_GLU-88

>  <total_num_ints>  (71) 
7

>  <total_num_ints_nonhyd>  (71) 
3

>  <num_uniq_frag_ints>  (71) 
3

>  <num_repl_uniq_ints>  (71) 
3

>  <num_uniq_ints_lost>  (71) 
0

>  <num_new_uniq_ints>  (71) 
4

>  <int_check>  (71) 
True

>  <original SMILES>  (71) 
NS(=O)(=O)Cc1ccccc1NC(=O)NC1(CCCO)CC1

>  <original_name>  (71) 
x0884_0A-x0719_1A_640_B1X

>  <ref_mols>  (71) 
Ax0884a,Ax0719a

>  <ref_pdb>  (71) 
Ax0310a

>  <rationale>  (71) 
FragNet: 1 round bioisosteric merging incl NC(=O)Nc1ccccc1 and NS(=O)(=O)C[Xe] replacing CC([Xe])CS(N)(=O)=O

$$$$
x0732_0A-x1140_0A_1910_PXX
     RDKit          3D

 23 25  0  0  0  0  0  0  0  0999 V2000
    6.4390   13.5610   22.1170 O   0  0  0  0  0  0  0  0  0  0  0  0
    6.5920   14.1100   23.2100 C   0  0  0  0  0  0  0  0  0  0  0  0
    5.7690   15.3200   23.5480 C   0  0  0  0  0  0  0  0  0  0  0  0
    6.3500   16.0600   24.6010 O   0  0  0  0  0  0  0  0  0  0  0  0
    7.4930   13.7340   24.2010 N   0  0  0  0  0  0  0  0  0  0  0  0
    8.1520   12.4880   24.1130 C   0  0  0  0  0  0  0  0  0  0  0  0
    7.6400   11.2440   24.4760 C   0  0  0  0  0  0  0  0  0  0  0  0
    8.4120   10.0970   24.2790 C   0  0  0  0  0  0  0  0  0  0  0  0
    9.7660   10.1960   23.7030 C   0  0  0  0  0  0  0  0  0  0  0  0
   10.2510   11.4750   23.3960 C   0  0  0  0  0  0  0  0  0  0  0  0
   11.5720   11.6700   22.9240 N   0  0  0  0  0  0  0  0  0  0  0  0
   12.3100   12.6210   23.6690 C   0  0  0  0  0  0  0  0  0  0  0  0
   11.6990   13.5690   24.1720 O   0  0  0  0  0  0  0  0  0  0  0  0
   13.8510   12.5550   23.9360 C   0  0  0  0  0  0  0  0  0  0  0  0
   14.5530   12.0690   25.1910 N   0  0  0  0  0  0  0  0  0  0  0  0
   14.8910   13.0840   26.1930 C   0  0  0  0  0  0  0  0  0  0  0  0
   15.5100   12.2050   27.2730 C   0  0  0  0  0  0  0  0  0  0  0  0
   16.5210   11.4960   26.4240 C   0  0  0  0  0  0  0  0  0  0  0  0
   15.8040   11.3510   25.0440 C   0  0  0  0  0  0  0  0  0  0  0  0
   14.7720   12.7290   22.6860 C   0  0  0  0  0  0  0  0  0  0  0  0
   14.2750   14.1620   22.7310 C   0  0  0  0  0  0  0  0  0  0  0  0
   14.3040   14.0090   24.1130 C   0  0  0  0  0  0  0  0  0  0  0  0
    9.4350   12.5690   23.6010 C   0  0  0  0  0  0  0  0  0  0  0  0
  1  2  2  0
  2  3  1  0
  3  4  1  0
  2  5  1  0
  5  6  1  0
  6  7  2  0
  7  8  1  0
  8  9  2  0
  9 10  1  0
 10 11  1  0
 11 12  1  0
 12 13  2  0
 12 14  1  0
 14 15  1  0
 15 16  1  0
 16 17  1  0
 17 18  1  0
 18 19  1  0
 14 20  1  0
 20 21  1  0
 21 22  1  0
 10 23  2  0
 23  6  1  0
 22 14  1  0
 19 15  1  0
A    1
 O1 
A    2
 C1 
A    3
 C2 
A    4
 O2 
A    5
 N1 
A    6
 C3 
A    7
 C4 
A    8
 C5 
A    9
 C6 
A   10
 C7 
A   11
 N2 
A   12
 C8 
A   13
 O3 
A   14
 C9 
A   15
 N3 
A   16
 C10
A   17
 C11
A   18
 C12
A   19
 C13
A   20
 C14
A   21
 C15
A   22
 C16
A   23
 C17
M  END
>  <similarity>  (72) 
NA

>  <smiles>  (72) 
O=C(CO)Nc1cccc(NC(=O)C2(N3CCCC3)CCC2)c1

>  <cmpd_id>  (72) 
ENAMINE:PV-003275872733

>  <used_subnode>  (72) 
NA

>  <used_synthon>  (72) 
NA

>  <ref_subnode>  (72) 
O=C(CO)Nc1ccccc1

>  <ref_synthon>  (72) 
[Xe]N1CCCC1

>  <fragmentA>  (72) 
x0732_0A

>  <fragmentB>  (72) 
x1140_0A

>  <HA>  (72) 
23

>  <HBD>  (72) 
3

>  <HBA>  (72) 
4

>  <MW>  (72) 
317.173941596

>  <TPSA>  (72) 
81.67

>  <LogP>  (72) 
1.5743999999999991

>  <RBs>  (72) 
5

>  <G_bound>  (72) 
-4.849074610436945

>  <G_unbound>  (72) 
1.3053383367612994

>  <deltaG>  (72) 
-6.154412947198245

>  <comRMSD>  (72) 
0.5750249696977862

>  <substructure_overlap_check>  (72) 
True

>  <sucos>  (72) 
0.6004337506594047

>  <interactions>  (72) 
Hydrophobic_PRO-107,HBDonor_SER-87,HBDonor_ALA-86,Hydrophobic_TYR-90,HBAcceptor_GLY-127,Hydrophobic_HIS-21,Hydrophobic_LEU-22,Hydrophobic_TYR-89,HBDonor_SER-125,Hydrophobic_CYS-110

>  <total_num_ints>  (72) 
10

>  <total_num_ints_nonhyd>  (72) 
4

>  <num_uniq_frag_ints>  (72) 
7

>  <num_repl_uniq_ints>  (72) 
3

>  <num_uniq_ints_lost>  (72) 
4

>  <num_new_uniq_ints>  (72) 
7

>  <int_check>  (72) 
True

>  <original SMILES>  (72) 
O=C(CO)Nc1cccc(NC(=O)C2(N3CCCC3)CCC2)c1

>  <original_name>  (72) 
x0732_0A-x1140_0A_1910_PXX

>  <ref_mols>  (72) 
Ax0732a,Ax1140a

>  <ref_pdb>  (72) 
Ax0310a

>  <rationale>  (72) 
FragNet: perfect merge incl O=C(CO)Nc1ccccc1,[Xe]N1CCCC1

$$$$
x0365_0A-x0310_0A_1630_B1X_rgrp-4
     RDKit          3D

 14 15  0  0  0  0  0  0  0  0999 V2000
   10.2160    9.1760   22.6390 C   0  0  0  0  0  0  0  0  0  0  0  0
    9.3620   10.0430   23.4890 C   0  0  0  0  0  0  0  0  0  0  0  0
    9.4590   11.4160   23.5410 C   0  0  0  0  0  0  0  0  0  0  0  0
    8.3040   12.0730   24.6200 S   0  0  0  0  0  0  0  0  0  0  0  0
    7.7360   10.4810   24.9560 C   0  0  0  0  0  0  0  0  0  0  0  0
    6.6860   10.2630   25.8370 N   0  0  0  0  0  0  0  0  0  0  0  0
    5.9510   11.1980   26.5910 C   0  0  0  0  0  0  0  0  0  0  0  0
    6.2800   11.2390   28.1210 C   0  0  0  0  0  0  0  0  0  0  0  0
    6.7650   12.7370   28.1810 C   0  0  0  0  0  0  0  0  0  0  0  0
    7.1320   12.8590   29.6680 C   0  0  0  0  0  0  0  0  0  0  0  0
    7.0300   11.7710   30.7540 C   0  0  0  0  0  0  0  0  0  0  0  0
    6.5530   10.5210   30.3910 C   0  0  0  0  0  0  0  0  0  0  0  0
    6.1820   10.2570   29.0930 C   0  0  0  0  0  0  0  0  0  0  0  0
    8.4050    9.4830   24.2760 N   0  0  0  0  0  0  0  0  0  0  0  0
  1  2  1  0
  2  3  2  0
  3  4  1  0
  4  5  1  0
  5  6  1  0
  6  7  1  0
  7  8  1  0
  8  9  2  0
  9 10  1  0
 10 11  2  0
 11 12  1  0
 12 13  2  0
  5 14  2  0
 14  2  1  0
 13  8  1  0
A    1
 C1 
A    2
 C2 
A    3
 C3 
A    4
 S1 
A    5
 C4 
A    6
 N1 
A    7
 C5 
A    8
 C6 
A    9
 C7 
A   10
 C8 
A   11
 C9 
A   12
 C10
A   13
 C11
A   14
 N2 
M  END
>  <similarity>  (73) 
1.0

>  <smiles>  (73) 
Cc1csc(NCc2ccccc2)n1

>  <cmpd_id>  (73) 
ENAMINE:Z48849898,CHEMSPACE-BB:CSMB00000168956

>  <used_subnode>  (73) 
NCc1ccccc1

>  <used_synthon>  (73) 
[Xe]c1nccs1

>  <ref_subnode>  (73) 
NCc1ccccc1

>  <ref_synthon>  (73) 
[Xe]n1cccn1

>  <fragmentA>  (73) 
x0365_0A

>  <fragmentB>  (73) 
x0310_0A

>  <HA>  (73) 
14

>  <HBD>  (73) 
1

>  <HBA>  (73) 
3

>  <MW>  (73) 
204.072119384

>  <TPSA>  (73) 
24.92

>  <LogP>  (73) 
3.063620000000001

>  <RBs>  (73) 
3

>  <G_bound>  (73) 
-8.338418855591135

>  <G_unbound>  (73) 
0.1571344740523529

>  <deltaG>  (73) 
-8.495553329643487

>  <comRMSD>  (73) 
0.15195622297831562

>  <substructure_overlap_check>  (73) 
True

>  <sucos>  (73) 
0.6004866336486613

>  <interactions>  (73) 
Hydrophobic_GLU-106,Hydrophobic_PRO-107,Hydrophobic_VAL-124,HBAcceptor_SER-105,HBDonor_SER-105

>  <total_num_ints>  (73) 
5

>  <total_num_ints_nonhyd>  (73) 
2

>  <num_uniq_frag_ints>  (73) 
6

>  <num_repl_uniq_ints>  (73) 
4

>  <num_uniq_ints_lost>  (73) 
2

>  <num_new_uniq_ints>  (73) 
1

>  <int_check>  (73) 
True

>  <original SMILES>  (73) 
Cc1csc(NCc2ccccc2)n1

>  <original_name>  (73) 
x0365_0A-x0310_0A_1630_B1X_rgrp-4

>  <ref_mols>  (73) 
Ax0365a,Ax0310a

>  <ref_pdb>  (73) 
Ax0310a

>  <rationale>  (73) 
FragNet: 1 round bioisosteric merging incl NCc1ccccc1 and [Xe]c1nccs1 replacing [Xe]n1cccn1

$$$$
x0365_0A-x0556_0A_1212_B1X_rgrp-1
     RDKit          3D

 18 19  0  0  0  0  0  0  0  0999 V2000
    7.8040   14.6510   31.5290 N   0  0  0  0  0  0  0  0  0  0  0  0
    7.9480   14.1800   30.2120 C   0  0  0  0  0  0  0  0  0  0  0  0
    7.3920   12.7870   29.9150 C   0  0  0  0  0  0  0  0  0  0  0  0
    7.6010   11.7260   31.0090 C   0  0  0  0  0  0  0  0  0  0  0  0
    7.0210   10.3940   30.6240 C   0  0  0  0  0  0  0  0  0  0  0  0
    6.3190   10.1250   29.3190 C   0  0  0  0  0  0  0  0  0  0  0  0
    6.2050   11.1850   28.4120 C   0  0  0  0  0  0  0  0  0  0  0  0
    5.5350   11.0860   27.0430 C   0  0  0  0  0  0  0  0  0  0  0  0
    4.5320   11.7180   26.7520 O   0  0  0  0  0  0  0  0  0  0  0  0
    6.1920   10.2110   26.1870 N   0  0  0  0  0  0  0  0  0  0  0  0
    7.2950   10.6030   25.2970 C   0  0  0  0  0  0  0  0  0  0  0  0
    7.5560   12.1150   25.0660 C   0  0  0  0  0  0  0  0  0  0  0  0
    8.7080   12.4910   24.1280 C   0  0  0  0  0  0  0  0  0  0  0  0
    8.9540   13.9180   23.9070 N   0  0  0  0  0  0  0  0  0  0  0  0
    9.5310   11.4700   23.4750 C   0  0  0  0  0  0  0  0  0  0  0  0
    9.1960   10.0370   23.7660 C   0  0  0  0  0  0  0  0  0  0  0  0
    8.1980    9.6550   24.5770 N   0  0  0  0  0  0  0  0  0  0  0  0
    6.7280   12.4830   28.7050 C   0  0  0  0  0  0  0  0  0  0  0  0
  1  2  1  0
  2  3  1  0
  3  4  2  0
  4  5  1  0
  5  6  2  0
  6  7  1  0
  7  8  1  0
  8  9  2  0
  8 10  1  0
 10 11  1  0
 11 12  2  0
 12 13  1  0
 13 14  1  0
 13 15  2  0
 15 16  1  0
 16 17  2  0
  7 18  2  0
 18  3  1  0
 17 11  1  0
A    1
 N1 
A    2
 C1 
A    3
 C2 
A    4
 C3 
A    5
 C4 
A    6
 C5 
A    7
 C6 
A    8
 C7 
A    9
 O1 
A   10
 N2 
A   11
 C8 
A   12
 C9 
A   13
 C10
A   14
 N3 
A   15
 C11
A   16
 C12
A   17
 N4 
A   18
 C13
M  END
>  <similarity>  (74) 
1.0

>  <smiles>  (74) 
NCc1cccc(C(=O)Nc2cc(N)ccn2)c1

>  <cmpd_id>  (74) 
ENAMINE:PV-002799722948

>  <used_subnode>  (74) 
NCc1ccccc1

>  <used_synthon>  (74) 
[Xe]c1ccccn1

>  <ref_subnode>  (74) 
NCc1ccccc1

>  <ref_synthon>  (74) 
[Xe]n1cccn1

>  <fragmentA>  (74) 
x0365_0A

>  <fragmentB>  (74) 
x0556_0A

>  <HA>  (74) 
18

>  <HBD>  (74) 
3

>  <HBA>  (74) 
4

>  <MW>  (74) 
242.116761068

>  <TPSA>  (74) 
94.03

>  <LogP>  (74) 
1.3748000000000002

>  <RBs>  (74) 
3

>  <G_bound>  (74) 
-5.741418562382408

>  <G_unbound>  (74) 
0.4803216265898516

>  <deltaG>  (74) 
-6.22174018897226

>  <comRMSD>  (74) 
0.24502072667135408

>  <substructure_overlap_check>  (74) 
True

>  <sucos>  (74) 
0.6033497327370898

>  <interactions>  (74) 
Hydrophobic_GLU-106,Hydrophobic_PRO-107,HBAcceptor_SER-105,HBDonor_SER-105

>  <total_num_ints>  (74) 
4

>  <total_num_ints_nonhyd>  (74) 
2

>  <num_uniq_frag_ints>  (74) 
5

>  <num_repl_uniq_ints>  (74) 
3

>  <num_uniq_ints_lost>  (74) 
2

>  <num_new_uniq_ints>  (74) 
1

>  <int_check>  (74) 
True

>  <original SMILES>  (74) 
NCc1cccc(C(=O)Nc2cc(N)ccn2)c1

>  <original_name>  (74) 
x0365_0A-x0556_0A_1212_B1X_rgrp-1

>  <ref_mols>  (74) 
Ax0365a,Ax0556a

>  <ref_pdb>  (74) 
Ax0310a

>  <rationale>  (74) 
FragNet: 1 round bioisosteric merging incl NCc1ccccc1 and [Xe]c1ccccn1 replacing [Xe]n1cccn1

$$$$
x0365_0A-x0310_0A_1759_B1X_rgrp-1
     RDKit          3D

 18 19  0  0  0  0  0  0  0  0999 V2000
    9.1770   13.8010   24.1600 C   0  0  0  0  0  0  0  0  0  0  0  0
    8.8420   12.3260   24.2470 C   0  0  0  0  0  0  0  0  0  0  0  0
    9.7870   11.4510   23.4320 C   0  0  0  0  0  0  0  0  0  0  0  0
    9.4670    9.9560   23.5200 C   0  0  0  0  0  0  0  0  0  0  0  0
    8.3160    9.5560   24.3460 N   0  0  0  0  0  0  0  0  0  0  0  0
    7.5420   10.5000   25.0270 C   0  0  0  0  0  0  0  0  0  0  0  0
    6.3800   10.0850   25.8240 N   0  0  0  0  0  0  0  0  0  0  0  0
    5.6760   11.0940   26.6280 C   0  0  0  0  0  0  0  0  0  0  0  0
    6.2770   11.3510   28.0160 C   0  0  0  0  0  0  0  0  0  0  0  0
    6.2040   10.1170   28.9080 C   0  0  0  0  0  0  0  0  0  0  0  0
    6.8150   10.3660   30.2920 C   0  0  0  0  0  0  0  0  0  0  0  0
    7.4090   11.7010   30.6900 C   0  0  0  0  0  0  0  0  0  0  0  0
    7.3750   12.8100   29.6410 C   0  0  0  0  0  0  0  0  0  0  0  0
    7.9280   14.1210   29.9540 C   0  0  0  0  0  0  0  0  0  0  0  0
    8.4400   14.8600   28.9230 N   0  0  0  0  0  0  0  0  0  0  0  0
    7.9430   14.5590   31.0960 O   0  0  0  0  0  0  0  0  0  0  0  0
    6.8240   12.5910   28.3800 C   0  0  0  0  0  0  0  0  0  0  0  0
    7.7910   11.8460   24.9880 C   0  0  0  0  0  0  0  0  0  0  0  0
  1  2  1  0
  2  3  2  0
  3  4  1  0
  4  5  2  0
  5  6  1  0
  6  7  1  0
  7  8  1  0
  8  9  1  0
  9 10  2  0
 10 11  1  0
 11 12  2  0
 12 13  1  0
 13 14  1  0
 14 15  1  0
 14 16  2  0
 13 17  2  0
  6 18  2  0
 18  2  1  0
 17  9  1  0
A    1
 C1 
A    2
 C2 
A    3
 C3 
A    4
 C4 
A    5
 N1 
A    6
 C5 
A    7
 N2 
A    8
 C6 
A    9
 C7 
A   10
 C8 
A   11
 C9 
A   12
 C10
A   13
 C11
A   14
 C12
A   15
 N3 
A   16
 O1 
A   17
 C13
A   18
 C14
M  END
>  <similarity>  (75) 
1.0

>  <smiles>  (75) 
Cc1ccnc(NCc2cccc(C(N)=O)c2)c1

>  <cmpd_id>  (75) 
ENAMINE:Z1416428728

>  <used_subnode>  (75) 
NCc1ccccc1

>  <used_synthon>  (75) 
[Xe]c1ccccn1

>  <ref_subnode>  (75) 
NCc1ccccc1

>  <ref_synthon>  (75) 
[Xe]n1cccn1

>  <fragmentA>  (75) 
x0365_0A

>  <fragmentB>  (75) 
x0310_0A

>  <HA>  (75) 
18

>  <HBD>  (75) 
2

>  <HBA>  (75) 
3

>  <MW>  (75) 
241.1215121

>  <TPSA>  (75) 
68.00999999999999

>  <LogP>  (75) 
2.10102

>  <RBs>  (75) 
4

>  <G_bound>  (75) 
-6.688456411053994

>  <G_unbound>  (75) 
0.65307473536406

>  <deltaG>  (75) 
-7.341531146418054

>  <comRMSD>  (75) 
0.17144347297343857

>  <substructure_overlap_check>  (75) 
True

>  <sucos>  (75) 
0.6051204163472981

>  <interactions>  (75) 
Hydrophobic_GLU-106,Hydrophobic_PRO-107,HBAcceptor_SER-105,HBDonor_SER-105

>  <total_num_ints>  (75) 
4

>  <total_num_ints_nonhyd>  (75) 
2

>  <num_uniq_frag_ints>  (75) 
6

>  <num_repl_uniq_ints>  (75) 
3

>  <num_uniq_ints_lost>  (75) 
3

>  <num_new_uniq_ints>  (75) 
1

>  <int_check>  (75) 
True

>  <original SMILES>  (75) 
Cc1ccnc(NCc2cccc(C(N)=O)c2)c1

>  <original_name>  (75) 
x0365_0A-x0310_0A_1759_B1X_rgrp-1

>  <ref_mols>  (75) 
Ax0365a,Ax0310a

>  <ref_pdb>  (75) 
Ax0310a

>  <rationale>  (75) 
FragNet: 1 round bioisosteric merging incl NCc1ccccc1 and [Xe]c1ccccn1 replacing [Xe]n1cccn1

$$$$
x0732_0A-x0528_0A_2071_PXX
     RDKit          3D

 22 24  0  0  0  0  0  0  0  0999 V2000
    6.4490   13.6900   22.3240 O   0  0  0  0  0  0  0  0  0  0  0  0
    6.7020   14.1220   23.4550 C   0  0  0  0  0  0  0  0  0  0  0  0
    7.7150   13.6960   24.2890 N   0  0  0  0  0  0  0  0  0  0  0  0
    8.2840   12.4350   24.1520 C   0  0  0  0  0  0  0  0  0  0  0  0
    7.7400   11.3260   24.8030 C   0  0  0  0  0  0  0  0  0  0  0  0
    8.2920   10.0620   24.6350 C   0  0  0  0  0  0  0  0  0  0  0  0
    9.3960    9.8750   23.8180 C   0  0  0  0  0  0  0  0  0  0  0  0
    9.9460   10.9570   23.1780 C   0  0  0  0  0  0  0  0  0  0  0  0
    9.4090   12.2270   23.3390 C   0  0  0  0  0  0  0  0  0  0  0  0
   10.2880   13.1090   22.4770 C   0  0  0  0  0  0  0  0  0  0  0  0
   10.7290   14.4060   22.8930 N   0  0  0  0  0  0  0  0  0  0  0  0
   11.7720   14.5600   23.8630 C   0  0  0  0  0  0  0  0  0  0  0  0
   12.9430   14.2190   23.0040 C   0  0  0  0  0  0  0  0  0  0  0  0
   12.5750   14.8600   21.6800 C   0  0  0  0  0  0  0  0  0  0  0  0
   11.1080   15.1280   21.8080 C   0  0  0  0  0  0  0  0  0  0  0  0
   10.3970   15.8180   21.0940 O   0  0  0  0  0  0  0  0  0  0  0  0
    5.8920   15.2300   24.1480 C   0  0  1  0  0  0  0  0  0  0  0  0
    5.7140   16.3000   23.2390 O   0  0  0  0  0  0  0  0  0  0  0  0
    4.5740   14.7610   24.7650 C   0  0  0  0  0  0  0  0  0  0  0  0
    4.5960   13.7660   25.9620 C   0  0  0  0  0  0  0  0  0  0  0  0
    3.2940   14.4410   26.4400 C   0  0  0  0  0  0  0  0  0  0  0  0
    3.7940   15.7110   25.7200 C   0  0  0  0  0  0  0  0  0  0  0  0
  1  2  2  0
  2  3  1  0
  3  4  1  0
  4  5  2  0
  5  6  1  0
  6  7  2  0
  7  8  1  0
  8  9  2  0
  9 10  1  0
 10 11  1  0
 11 12  1  0
 12 13  1  0
 13 14  1  0
 14 15  1  0
 15 16  2  0
  2 17  1  0
 17 18  1  6
 17 19  1  0
 19 20  1  0
 20 21  1  0
 21 22  1  0
  9  4  1  0
 15 11  1  0
 22 19  1  0
A    1
 O1 
A    2
 C1 
A    3
 N1 
A    4
 C2 
A    5
 C3 
A    6
 C4 
A    7
 C5 
A    8
 C6 
A    9
 C7 
A   10
 C8 
A   11
 N2 
A   12
 C9 
A   13
 C10
A   14
 C11
A   15
 C12
A   16
 O2 
A   17
 C13
A   18
 O3 
A   19
 C14
A   20
 C15
A   21
 C16
A   22
 C17
M  END
>  <similarity>  (76) 
NA

>  <smiles>  (76) 
O=C(Nc1ccccc1CN1CCCC1=O)C(O)C1CCC1

>  <cmpd_id>  (76) 
ENAMINE:Z4502715794

>  <used_subnode>  (76) 
NA

>  <used_synthon>  (76) 
NA

>  <ref_subnode>  (76) 
Cc1ccccc1NC(=O)CO

>  <ref_synthon>  (76) 
O=C1CCCN1[Xe]

>  <fragmentA>  (76) 
x0732_0A

>  <fragmentB>  (76) 
x0528_0A

>  <HA>  (76) 
22

>  <HBD>  (76) 
2

>  <HBA>  (76) 
3

>  <MW>  (76) 
302.163042564

>  <TPSA>  (76) 
69.64

>  <LogP>  (76) 
1.9084999999999999

>  <RBs>  (76) 
5

>  <G_bound>  (76) 
-7.470420516379807

>  <G_unbound>  (76) 
1.4509175177038216

>  <deltaG>  (76) 
-8.921338034083629

>  <comRMSD>  (76) 
1.2886756342314631

>  <substructure_overlap_check>  (76) 
True

>  <sucos>  (76) 
0.605298896205887

>  <interactions>  (76) 
Hydrophobic_PRO-107,HBDonor_ALA-86,Hydrophobic_GLU-85,Hydrophobic_TYR-90,HBAcceptor_GLY-127,Hydrophobic_HIS-21,Hydrophobic_TYR-89

>  <total_num_ints>  (76) 
7

>  <total_num_ints_nonhyd>  (76) 
2

>  <num_uniq_frag_ints>  (76) 
6

>  <num_repl_uniq_ints>  (76) 
3

>  <num_uniq_ints_lost>  (76) 
3

>  <num_new_uniq_ints>  (76) 
4

>  <int_check>  (76) 
True

>  <original SMILES>  (76) 
O=C(Nc1ccccc1CN1CCCC1=O)C(O)C1CCC1

>  <original_name>  (76) 
x0732_0A-x0528_0A_2071_PXX

>  <ref_mols>  (76) 
Ax0732a,Ax0528a

>  <ref_pdb>  (76) 
Ax0310a

>  <rationale>  (76) 
FragNet: perfect merge incl Cc1ccccc1NC(=O)CO,O=C1CCCN1[Xe]

$$$$
x0556_0A-x0310_0A_4243_B1X
     RDKit          3D

 22 23  0  0  0  0  0  0  0  0999 V2000
   12.1350   16.2080   22.0810 C   0  0  0  0  0  0  0  0  0  0  0  0
   12.4780   15.1900   23.1380 C   0  0  0  0  0  0  0  0  0  0  0  0
   12.0970   13.7900   22.7140 C   0  0  0  0  0  0  0  0  0  0  0  0
   10.9850   13.2590   23.5650 C   0  0  0  0  0  0  0  0  0  0  0  0
   10.8640   13.5190   24.7470 O   0  0  0  0  0  0  0  0  0  0  0  0
   10.1130   12.4610   22.8830 N   0  0  0  0  0  0  0  0  0  0  0  0
    8.8040   12.1720   23.4410 C   0  0  0  0  0  0  0  0  0  0  0  0
    8.7560   10.7140   23.9180 C   0  0  0  0  0  0  0  0  0  0  0  0
    7.7730   10.3810   25.0270 C   0  0  0  0  0  0  0  0  0  0  0  0
    6.7920   11.3810   25.4170 N   0  0  0  0  0  0  0  0  0  0  0  0
    5.8180   11.1480   26.3940 C   0  0  0  0  0  0  0  0  0  0  0  0
    4.9700   11.9880   26.6590 O   0  0  0  0  0  0  0  0  0  0  0  0
    5.8630    9.9230   27.0460 N   0  0  0  0  0  0  0  0  0  0  0  0
    4.6530    9.1770   27.4860 C   0  0  2  0  0  0  0  0  0  0  0  0
    3.5840    9.8780   28.3510 C   0  0  0  0  0  0  0  0  0  0  0  0
    3.3910    8.5040   29.0460 C   0  0  1  0  0  0  0  0  0  0  0  0
    2.3710    7.4960   28.5070 C   0  0  0  0  0  0  0  0  0  0  0  0
    1.0180    8.0320   28.3140 C   0  0  0  0  0  0  0  0  0  0  0  0
   -0.0520    8.4410   28.1370 N   0  0  0  0  0  0  0  0  0  0  0  0
    4.8810    8.2940   28.7310 C   0  0  0  0  0  0  0  0  0  0  0  0
    7.0520   12.8030   25.1490 C   0  0  0  0  0  0  0  0  0  0  0  0
    8.3900   13.1680   24.5090 C   0  0  0  0  0  0  0  0  0  0  0  0
  1  2  1  0
  2  3  1  0
  3  4  1  0
  4  5  2  0
  4  6  1  0
  6  7  1  0
  7  8  1  0
  8  9  1  0
  9 10  1  0
 10 11  1  0
 11 12  2  0
 11 13  1  0
 14 13  1  1
 14 15  1  0
 15 16  1  0
 16 17  1  6
 17 18  1  0
 18 19  3  0
 16 20  1  0
 10 21  1  0
 21 22  1  0
 22  7  1  0
 20 14  1  0
A    1
 C1 
A    2
 C2 
A    3
 C3 
A    4
 C4 
A    5
 O1 
A    6
 N1 
A    7
 C5 
A    8
 C6 
A    9
 C7 
A   10
 N2 
A   11
 C8 
A   12
 O2 
A   13
 N3 
A   14
 C9 
A   15
 C10
A   16
 C11
A   17
 C12
A   18
 C13
A   19
 N4 
A   20
 C14
A   21
 C15
A   22
 C16
M  END
>  <similarity>  (77) 
1.0

>  <smiles>  (77) 
CCCC(=O)NC1CCN(C(=O)NC2CC(CC#N)C2)CC1

>  <cmpd_id>  (77) 
ENAMINE:Z3798134777,ENAMINE:Z3798174450

>  <used_subnode>  (77) 
O=CNC1CCC1

>  <used_synthon>  (77) 
CCCC(=O)N[Xe]

>  <ref_subnode>  (77) 
O=CNC1CCC1

>  <ref_synthon>  (77) 
N#CCC(=O)N[Xe]

>  <fragmentA>  (77) 
x0556_0A

>  <fragmentB>  (77) 
x0310_0A

>  <HA>  (77) 
22

>  <HBD>  (77) 
2

>  <HBA>  (77) 
3

>  <MW>  (77) 
306.205576072

>  <TPSA>  (77) 
85.23

>  <LogP>  (77) 
1.76898

>  <RBs>  (77) 
5

>  <G_bound>  (77) 
-4.998305298275611

>  <G_unbound>  (77) 
1.236385563538824

>  <deltaG>  (77) 
-6.2346908618144345

>  <comRMSD>  (77) 
0.6169364486458991

>  <substructure_overlap_check>  (77) 
True

>  <sucos>  (77) 
0.6060664691627273

>  <interactions>  (77) 
Hydrophobic_TYR-90,Hydrophobic_PRO-107,Hydrophobic_HIS-21,Hydrophobic_TYR-89,HBDonor_SER-125,Hydrophobic_GLU-106,HBDonor_SER-105

>  <total_num_ints>  (77) 
7

>  <total_num_ints_nonhyd>  (77) 
2

>  <num_uniq_frag_ints>  (77) 
8

>  <num_repl_uniq_ints>  (77) 
6

>  <num_uniq_ints_lost>  (77) 
2

>  <num_new_uniq_ints>  (77) 
1

>  <int_check>  (77) 
True

>  <original SMILES>  (77) 
CCCC(=O)NC1CCN(C(=O)NC2CC(CC#N)C2)CC1

>  <original_name>  (77) 
x0556_0A-x0310_0A_4243_B1X

>  <ref_mols>  (77) 
Ax0556a,Ax0310a

>  <ref_pdb>  (77) 
Ax0310a

>  <rationale>  (77) 
FragNet: 1 round bioisosteric merging incl O=CNC1CCC1 and CCCC(=O)N[Xe] replacing N#CCC(=O)N[Xe]

$$$$
x0365_0A-x0556_0A_1446_B1X
     RDKit          3D

 18 19  0  0  0  0  0  0  0  0999 V2000
    6.2670    7.6240   30.5960 C   0  0  0  0  0  0  0  0  0  0  0  0
    5.9790    8.6980   31.6070 C   0  0  0  0  0  0  0  0  0  0  0  0
    6.9540    9.7280   31.4580 O   0  0  0  0  0  0  0  0  0  0  0  0
    6.8240   10.5920   30.4050 C   0  0  0  0  0  0  0  0  0  0  0  0
    6.1890   10.3000   29.2030 C   0  0  0  0  0  0  0  0  0  0  0  0
    6.1110   11.2530   28.1970 C   0  0  0  0  0  0  0  0  0  0  0  0
    5.4200   10.9100   26.9110 C   0  0  0  0  0  0  0  0  0  0  0  0
    6.1640   10.0090   26.0490 N   0  0  0  0  0  0  0  0  0  0  0  0
    7.2170   10.5240   25.2860 C   0  0  0  0  0  0  0  0  0  0  0  0
    7.3310   11.9080   25.1680 C   0  0  0  0  0  0  0  0  0  0  0  0
    8.3500   12.5110   24.4020 C   0  0  0  0  0  0  0  0  0  0  0  0
    9.2580   11.6690   23.7560 C   0  0  0  0  0  0  0  0  0  0  0  0
    9.0510   10.2920   23.9450 C   0  0  0  0  0  0  0  0  0  0  0  0
    8.0910    9.7140   24.6670 N   0  0  0  0  0  0  0  0  0  0  0  0
    6.6730   12.5210   28.3830 C   0  0  0  0  0  0  0  0  0  0  0  0
    7.3120   12.8250   29.5780 C   0  0  0  0  0  0  0  0  0  0  0  0
    7.3850   11.8640   30.5820 C   0  0  0  0  0  0  0  0  0  0  0  0
    8.0140   12.1640   31.7610 O   0  0  0  0  0  0  0  0  0  0  0  0
  1  2  1  0
  2  3  1  0
  3  4  1  0
  4  5  2  0
  5  6  1  0
  6  7  1  0
  7  8  1  0
  8  9  1  0
  9 10  2  0
 10 11  1  0
 11 12  2  0
 12 13  1  0
 13 14  2  0
  6 15  2  0
 15 16  1  0
 16 17  2  0
 17 18  1  0
 17  4  1  0
 14  9  1  0
A    1
 C1 
A    2
 C2 
A    3
 O1 
A    4
 C3 
A    5
 C4 
A    6
 C5 
A    7
 C6 
A    8
 N1 
A    9
 C7 
A   10
 C8 
A   11
 C9 
A   12
 C10
A   13
 C11
A   14
 N2 
A   15
 C12
A   16
 C13
A   17
 C14
A   18
 O2 
M  END
>  <similarity>  (78) 
1.0

>  <smiles>  (78) 
CCOc1cc(CNc2ccccn2)ccc1O

>  <cmpd_id>  (78) 
ENAMINE:Z636444962

>  <used_subnode>  (78) 
NCc1ccccc1

>  <used_synthon>  (78) 
[Xe]c1ccccn1

>  <ref_subnode>  (78) 
NCc1ccccc1

>  <ref_synthon>  (78) 
[Xe]n1cccn1

>  <fragmentA>  (78) 
x0365_0A

>  <fragmentB>  (78) 
x0556_0A

>  <HA>  (78) 
18

>  <HBD>  (78) 
2

>  <HBA>  (78) 
4

>  <MW>  (78) 
244.121177752

>  <TPSA>  (78) 
54.379999999999995

>  <LogP>  (78) 
2.7980000000000014

>  <RBs>  (78) 
5

>  <G_bound>  (78) 
-5.6380327441289975

>  <G_unbound>  (78) 
0.3163576900634184

>  <deltaG>  (78) 
-5.954390434192415

>  <comRMSD>  (78) 
0.35529605515351204

>  <substructure_overlap_check>  (78) 
True

>  <sucos>  (78) 
0.6080382180265095

>  <interactions>  (78) 
Hydrophobic_PRO-107,Hydrophobic_GLU-106,HBAcceptor_SER-105,HBDonor_SER-105

>  <total_num_ints>  (78) 
4

>  <total_num_ints_nonhyd>  (78) 
2

>  <num_uniq_frag_ints>  (78) 
5

>  <num_repl_uniq_ints>  (78) 
3

>  <num_uniq_ints_lost>  (78) 
2

>  <num_new_uniq_ints>  (78) 
1

>  <int_check>  (78) 
True

>  <original SMILES>  (78) 
CCOc1cc(CNc2ccccn2)ccc1O

>  <original_name>  (78) 
x0365_0A-x0556_0A_1446_B1X

>  <ref_mols>  (78) 
Ax0365a,Ax0556a

>  <ref_pdb>  (78) 
Ax0310a

>  <rationale>  (78) 
FragNet: 1 round bioisosteric merging incl NCc1ccccc1 and [Xe]c1ccccn1 replacing [Xe]n1cccn1

$$$$
x0365_0A-x0556_0A_1311_B1X
     RDKit          3D

 23 25  0  0  0  0  0  0  0  0999 V2000
   10.5020   10.2610   22.3630 O   0  0  0  0  0  0  0  0  0  0  0  0
    9.8070    9.8640   23.2460 C   0  0  0  0  0  0  0  0  0  0  0  0
    9.8370    8.5750   23.5800 O   0  0  0  0  0  0  0  0  0  0  0  0
    8.8600   10.6750   24.0370 C   0  0  0  0  0  0  0  0  0  0  0  0
    8.9840   12.0440   24.0250 C   0  0  0  0  0  0  0  0  0  0  0  0
    8.0820   12.7870   24.7580 C   0  0  0  0  0  0  0  0  0  0  0  0
    7.0920   12.1390   25.4710 C   0  0  0  0  0  0  0  0  0  0  0  0
    7.0300   10.7580   25.4320 C   0  0  0  0  0  0  0  0  0  0  0  0
    6.0380   10.0680   26.1120 N   0  0  0  0  0  0  0  0  0  0  0  0
    5.2440   10.8380   27.0460 C   0  0  0  0  0  0  0  0  0  0  0  0
    6.0320   11.1780   28.2700 C   0  0  0  0  0  0  0  0  0  0  0  0
    6.2270   10.2120   29.2540 C   0  0  0  0  0  0  0  0  0  0  0  0
    6.9550   10.5150   30.4030 C   0  0  0  0  0  0  0  0  0  0  0  0
    7.5050   11.7900   30.5980 C   0  0  0  0  0  0  0  0  0  0  0  0
    8.2670   12.1070   31.8120 C   0  0  0  0  0  0  0  0  0  0  0  0
    9.6620   12.0240   31.8600 C   0  0  0  0  0  0  0  0  0  0  0  0
   10.3480   12.3370   33.0350 C   0  0  0  0  0  0  0  0  0  0  0  0
    9.6140   12.7270   34.1390 C   0  0  0  0  0  0  0  0  0  0  0  0
    8.2700   12.8230   34.1460 N   0  0  0  0  0  0  0  0  0  0  0  0
    7.6330   12.5120   32.9900 C   0  0  0  0  0  0  0  0  0  0  0  0
    7.3050   12.7550   29.5980 C   0  0  0  0  0  0  0  0  0  0  0  0
    6.5770   12.4560   28.4460 C   0  0  0  0  0  0  0  0  0  0  0  0
    7.9010   10.0180   24.7300 N   0  0  0  0  0  0  0  0  0  0  0  0
  1  2  2  0
  2  3  1  0
  2  4  1  0
  4  5  2  0
  5  6  1  0
  6  7  2  0
  7  8  1  0
  8  9  1  0
  9 10  1  0
 10 11  1  0
 11 12  2  0
 12 13  1  0
 13 14  2  0
 14 15  1  0
 15 16  2  0
 16 17  1  0
 17 18  2  0
 18 19  1  0
 19 20  2  0
 14 21  1  0
 21 22  2  0
  8 23  2  0
 23  4  1  0
 22 11  1  0
 20 15  1  0
A    1
 O1 
A    2
 C1 
A    3
 O2 
A    4
 C2 
A    5
 C3 
A    6
 C4 
A    7
 C5 
A    8
 C6 
A    9
 N1 
A   10
 C7 
A   11
 C8 
A   12
 C9 
A   13
 C10
A   14
 C11
A   15
 C12
A   16
 C13
A   17
 C14
A   18
 C15
A   19
 N2 
A   20
 C16
A   21
 C17
A   22
 C18
A   23
 N3 
M  END
>  <similarity>  (79) 
1.0

>  <smiles>  (79) 
O=C(O)c1cccc(NCc2ccc(-c3cccnc3)cc2)n1

>  <cmpd_id>  (79) 
ENAMINE:PV-003655840488

>  <used_subnode>  (79) 
NCc1ccccc1

>  <used_synthon>  (79) 
[Xe]c1cccnc1

>  <ref_subnode>  (79) 
NCc1ccccc1

>  <ref_synthon>  (79) 
[Xe]n1cccn1

>  <fragmentA>  (79) 
x0365_0A

>  <fragmentB>  (79) 
x0556_0A

>  <HA>  (79) 
23

>  <HBD>  (79) 
2

>  <HBA>  (79) 
4

>  <MW>  (79) 
305.11642672000005

>  <TPSA>  (79) 
75.11

>  <LogP>  (79) 
3.453900000000001

>  <RBs>  (79) 
5

>  <G_bound>  (79) 
-3.053003201213819

>  <G_unbound>  (79) 
0.31037906632337586

>  <deltaG>  (79) 
-3.3633822675371947

>  <comRMSD>  (79) 
0.9576396272505944

>  <substructure_overlap_check>  (79) 
True

>  <sucos>  (79) 
0.608937116121976

>  <interactions>  (79) 
Hydrophobic_PRO-107,Hydrophobic_GLU-106,HBDonor_GLU-106,HBDonor_SER-105

>  <total_num_ints>  (79) 
4

>  <total_num_ints_nonhyd>  (79) 
2

>  <num_uniq_frag_ints>  (79) 
5

>  <num_repl_uniq_ints>  (79) 
3

>  <num_uniq_ints_lost>  (79) 
2

>  <num_new_uniq_ints>  (79) 
1

>  <int_check>  (79) 
True

>  <original SMILES>  (79) 
O=C(O)c1cccc(NCc2ccc(-c3cccnc3)cc2)n1

>  <original_name>  (79) 
x0365_0A-x0556_0A_1311_B1X

>  <ref_mols>  (79) 
Ax0365a,Ax0556a

>  <ref_pdb>  (79) 
Ax0310a

>  <rationale>  (79) 
FragNet: 1 round bioisosteric merging incl NCc1ccccc1 and [Xe]c1cccnc1 replacing [Xe]n1cccn1

$$$$
x0365_0A-x0556_0A_132_PXX
     RDKit          3D

 20 22  0  0  0  0  0  0  0  0999 V2000
   10.2090   12.1090   23.1180 C   0  0  0  0  0  0  0  0  0  0  0  0
    9.0670   11.6260   23.9430 C   0  0  0  0  0  0  0  0  0  0  0  0
    8.1630   12.5000   24.5130 C   0  0  0  0  0  0  0  0  0  0  0  0
    7.1190   11.9880   25.2650 C   0  0  0  0  0  0  0  0  0  0  0  0
    7.0190   10.6240   25.4190 C   0  0  0  0  0  0  0  0  0  0  0  0
    6.0010   10.0150   26.1300 N   0  0  0  0  0  0  0  0  0  0  0  0
    5.2220   10.7170   27.1180 C   0  0  0  0  0  0  0  0  0  0  0  0
    6.0240   11.1770   28.2880 C   0  0  0  0  0  0  0  0  0  0  0  0
    6.1820   10.3260   29.3870 C   0  0  0  0  0  0  0  0  0  0  0  0
    6.9290   10.7360   30.4850 C   0  0  0  0  0  0  0  0  0  0  0  0
    7.5260   12.0010   30.4950 C   0  0  0  0  0  0  0  0  0  0  0  0
    7.3740   12.8600   29.3960 C   0  0  0  0  0  0  0  0  0  0  0  0
    7.9680   14.1820   29.3280 C   0  0  0  0  0  0  0  0  0  0  0  0
    7.8310   15.1760   28.3330 C   0  0  0  0  0  0  0  0  0  0  0  0
    8.5330   16.2780   28.5980 N   0  0  0  0  0  0  0  0  0  0  0  0
    9.1260   15.9870   29.7740 N   0  0  0  0  0  0  0  0  0  0  0  0
    8.8190   14.7480   30.2510 C   0  0  0  0  0  0  0  0  0  0  0  0
    6.6190   12.4330   28.3060 C   0  0  0  0  0  0  0  0  0  0  0  0
    7.9240    9.8110   24.8530 N   0  0  0  0  0  0  0  0  0  0  0  0
    8.9540   10.3030   24.1090 N   0  0  0  0  0  0  0  0  0  0  0  0
  1  2  1  0
  2  3  2  0
  3  4  1  0
  4  5  2  0
  5  6  1  0
  6  7  1  0
  7  8  1  0
  8  9  2  0
  9 10  1  0
 10 11  2  0
 11 12  1  0
 12 13  1  0
 13 14  1  0
 14 15  2  0
 15 16  1  0
 16 17  1  0
 12 18  2  0
  5 19  1  0
 19 20  2  0
 20  2  1  0
 18  8  1  0
 17 13  2  0
A    1
 C1 
A    2
 C2 
A    3
 C3 
A    4
 C4 
A    5
 C5 
A    6
 N1 
A    7
 C6 
A    8
 C7 
A    9
 C8 
A   10
 C9 
A   11
 C10
A   12
 C11
A   13
 C12
A   14
 C13
A   15
 N2 
A   16
 N3 
A   17
 C14
A   18
 C15
A   19
 N4 
A   20
 N5 
M  END
>  <similarity>  (80) 
NA

>  <smiles>  (80) 
Cc1ccc(NCc2cccc(-c3cn[nH]c3)c2)nn1

>  <cmpd_id>  (80) 
ENAMINE:PV-002754701075

>  <used_subnode>  (80) 
NA

>  <used_synthon>  (80) 
NA

>  <ref_subnode>  (80) 
NCc1ccccc1

>  <ref_synthon>  (80) 
[Xe]c1cn[nH]c1

>  <fragmentA>  (80) 
x0365_0A

>  <fragmentB>  (80) 
x0556_0A

>  <HA>  (80) 
20

>  <HBD>  (80) 
2

>  <HBA>  (80) 
4

>  <MW>  (80) 
265.13274548

>  <TPSA>  (80) 
66.49000000000001

>  <LogP>  (80) 
2.7872199999999996

>  <RBs>  (80) 
4

>  <G_bound>  (80) 
-7.613467082668718

>  <G_unbound>  (80) 
0.03152586974842207

>  <deltaG>  (80) 
-7.64499295241714

>  <comRMSD>  (80) 
0.35484270825231423

>  <substructure_overlap_check>  (80) 
True

>  <sucos>  (80) 
0.6108211063022584

>  <interactions>  (80) 
Hydrophobic_PRO-107,Hydrophobic_GLU-106,HBDonor_GLU-88,HBDonor_SER-105

>  <total_num_ints>  (80) 
4

>  <total_num_ints_nonhyd>  (80) 
2

>  <num_uniq_frag_ints>  (80) 
5

>  <num_repl_uniq_ints>  (80) 
3

>  <num_uniq_ints_lost>  (80) 
2

>  <num_new_uniq_ints>  (80) 
1

>  <int_check>  (80) 
True

>  <original SMILES>  (80) 
Cc1ccc(NCc2cccc(-c3cn[nH]c3)c2)nn1

>  <original_name>  (80) 
x0365_0A-x0556_0A_132_PXX

>  <ref_mols>  (80) 
Ax0365a,Ax0556a

>  <ref_pdb>  (80) 
Ax0310a

>  <rationale>  (80) 
FragNet: perfect merge incl NCc1ccccc1,[Xe]c1cn[nH]c1

$$$$
x0365_0A-x0310_0A_1860_B1X
     RDKit          3D

 23 25  0  0  0  0  0  0  0  0999 V2000
   10.6380    8.3090   23.4240 O   0  0  0  0  0  0  0  0  0  0  0  0
   10.0570    9.2860   23.0370 C   0  0  0  0  0  0  0  0  0  0  0  0
   10.1600    9.6690   21.7990 O   0  0  0  0  0  0  0  0  0  0  0  0
    9.1720   10.1990   23.7820 C   0  0  0  0  0  0  0  0  0  0  0  0
    9.4310   11.5500   23.6760 C   0  0  0  0  0  0  0  0  0  0  0  0
    8.6120   12.4250   24.3570 C   0  0  0  0  0  0  0  0  0  0  0  0
    7.5650   11.9310   25.1150 C   0  0  0  0  0  0  0  0  0  0  0  0
    7.3640   10.5650   25.1700 C   0  0  0  0  0  0  0  0  0  0  0  0
    6.3030   10.0340   25.9080 N   0  0  0  0  0  0  0  0  0  0  0  0
    5.4680   10.8320   26.8020 C   0  0  0  0  0  0  0  0  0  0  0  0
    6.1470   11.2130   28.0860 C   0  0  0  0  0  0  0  0  0  0  0  0
    6.1780   10.3150   29.1570 C   0  0  0  0  0  0  0  0  0  0  0  0
    6.8080   10.6720   30.3430 C   0  0  0  0  0  0  0  0  0  0  0  0
    7.4150   11.9300   30.4630 C   0  0  0  0  0  0  0  0  0  0  0  0
    7.4050   12.8610   29.4020 C   0  0  0  0  0  0  0  0  0  0  0  0
    8.0570   14.1890   29.5150 C   0  0  0  0  0  0  0  0  0  0  0  0
    9.0240   14.4900   30.4750 C   0  0  0  0  0  0  0  0  0  0  0  0
    9.5950   15.7630   30.5010 C   0  0  0  0  0  0  0  0  0  0  0  0
    9.1910   16.7130   29.5710 C   0  0  0  0  0  0  0  0  0  0  0  0
    8.2290   16.3470   28.6500 C   0  0  0  0  0  0  0  0  0  0  0  0
    7.6610   15.1210   28.6030 N   0  0  0  0  0  0  0  0  0  0  0  0
    6.7560   12.4700   28.2190 C   0  0  0  0  0  0  0  0  0  0  0  0
    8.1610    9.6850   24.5090 N   0  0  0  0  0  0  0  0  0  0  0  0
  1  2  2  0
  2  3  1  0
  2  4  1  0
  4  5  2  0
  5  6  1  0
  6  7  2  0
  7  8  1  0
  8  9  1  0
  9 10  1  0
 10 11  1  0
 11 12  2  0
 12 13  1  0
 13 14  2  0
 14 15  1  0
 15 16  1  0
 16 17  2  0
 17 18  1  0
 18 19  2  0
 19 20  1  0
 20 21  2  0
 15 22  2  0
  8 23  2  0
 23  4  1  0
 22 11  1  0
 21 16  1  0
A    1
 O1 
A    2
 C1 
A    3
 O2 
A    4
 C2 
A    5
 C3 
A    6
 C4 
A    7
 C5 
A    8
 C6 
A    9
 N1 
A   10
 C7 
A   11
 C8 
A   12
 C9 
A   13
 C10
A   14
 C11
A   15
 C12
A   16
 C13
A   17
 C14
A   18
 C15
A   19
 C16
A   20
 C17
A   21
 N2 
A   22
 C18
A   23
 N3 
M  END
>  <similarity>  (81) 
1.0

>  <smiles>  (81) 
O=C(O)c1cccc(NCc2cccc(-c3ccccn3)c2)n1

>  <cmpd_id>  (81) 
ENAMINE:PV-003097277990

>  <used_subnode>  (81) 
NCc1ccccc1

>  <used_synthon>  (81) 
[Xe]c1ccccn1

>  <ref_subnode>  (81) 
NCc1ccccc1

>  <ref_synthon>  (81) 
[Xe]n1cccn1

>  <fragmentA>  (81) 
x0365_0A

>  <fragmentB>  (81) 
x0310_0A

>  <HA>  (81) 
23

>  <HBD>  (81) 
2

>  <HBA>  (81) 
4

>  <MW>  (81) 
305.11642672000005

>  <TPSA>  (81) 
75.11

>  <LogP>  (81) 
3.453900000000001

>  <RBs>  (81) 
5

>  <G_bound>  (81) 
-2.3213806527778313

>  <G_unbound>  (81) 
0.4330691876143348

>  <deltaG>  (81) 
-2.7544498403921662

>  <comRMSD>  (81) 
0.35761518502538764

>  <substructure_overlap_check>  (81) 
True

>  <sucos>  (81) 
0.6114110366591932

>  <interactions>  (81) 
Hydrophobic_PRO-107,Hydrophobic_GLU-106,HBAcceptor_SER-105,HBDonor_SER-105,Hydrophobic_GLU-88

>  <total_num_ints>  (81) 
5

>  <total_num_ints_nonhyd>  (81) 
2

>  <num_uniq_frag_ints>  (81) 
6

>  <num_repl_uniq_ints>  (81) 
3

>  <num_uniq_ints_lost>  (81) 
3

>  <num_new_uniq_ints>  (81) 
2

>  <int_check>  (81) 
True

>  <original SMILES>  (81) 
O=C(O)c1cccc(NCc2cccc(-c3ccccn3)c2)n1

>  <original_name>  (81) 
x0365_0A-x0310_0A_1860_B1X

>  <ref_mols>  (81) 
Ax0365a,Ax0310a

>  <ref_pdb>  (81) 
Ax0310a

>  <rationale>  (81) 
FragNet: 1 round bioisosteric merging incl NCc1ccccc1 and [Xe]c1ccccn1 replacing [Xe]n1cccn1

$$$$
x0732_0A-x0310_0A_894_PXX
     RDKit          3D

 23 24  0  0  0  0  0  0  0  0999 V2000
    0.9570   13.3500   22.5530 C   0  0  0  0  0  0  0  0  0  0  0  0
    2.2960   13.8460   22.4540 N   0  0  0  0  0  0  0  0  0  0  0  0
    3.1000   14.1650   23.5030 C   0  0  0  0  0  0  0  0  0  0  0  0
    4.3580   14.6010   22.8570 C   0  0  0  0  0  0  0  0  0  0  0  0
    5.4520   14.9970   23.6270 C   0  0  2  0  0  0  0  0  0  0  0  0
    6.0290   16.1690   23.0740 O   0  0  0  0  0  0  0  0  0  0  0  0
    6.4260   14.0420   23.5080 C   0  0  0  0  0  0  0  0  0  0  0  0
    6.7070   13.6510   22.3600 O   0  0  0  0  0  0  0  0  0  0  0  0
    6.9960   13.5440   24.6590 N   0  0  0  0  0  0  0  0  0  0  0  0
    7.7340   12.3930   24.4750 C   0  0  0  0  0  0  0  0  0  0  0  0
    7.3870   11.0000   24.9610 C   0  0  0  0  0  0  0  0  0  0  0  0
    8.3410    9.9020   24.5700 C   0  0  0  0  0  0  0  0  0  0  0  0
    9.5140   10.3200   23.7670 C   0  0  0  0  0  0  0  0  0  0  0  0
    9.7510   11.6240   23.3940 C   0  0  0  0  0  0  0  0  0  0  0  0
   10.8010   12.1110   22.6750 N   0  0  0  0  0  0  0  0  0  0  0  0
   10.9930   13.4210   22.3600 C   0  0  0  0  0  0  0  0  0  0  0  0
   10.1340   14.2230   22.0130 O   0  0  0  0  0  0  0  0  0  0  0  0
   12.4090   13.8560   22.4660 C   0  0  0  0  0  0  0  0  0  0  0  0
   12.2920   15.2660   22.6510 C   0  0  0  0  0  0  0  0  0  0  0  0
   12.0600   16.3670   22.7770 N   0  0  0  0  0  0  0  0  0  0  0  0
    8.8760   12.6180   23.7420 C   0  0  0  0  0  0  0  0  0  0  0  0
    4.1140   14.4810   21.4760 C   0  0  0  0  0  0  0  0  0  0  0  0
    2.8700   14.0300   21.2300 N   0  0  0  0  0  0  0  0  0  0  0  0
  1  2  1  0
  2  3  1  0
  3  4  2  0
  4  5  1  0
  5  6  1  6
  5  7  1  0
  7  8  2  0
  7  9  1  0
  9 10  1  0
 10 11  2  0
 11 12  1  0
 12 13  2  0
 13 14  1  0
 14 15  1  0
 15 16  1  0
 16 17  2  0
 16 18  1  0
 18 19  1  0
 19 20  3  0
 14 21  2  0
  4 22  1  0
 22 23  2  0
 23  2  1  0
 21 10  1  0
A    1
 C1 
A    2
 N1 
A    3
 C2 
A    4
 C3 
A    5
 C4 
A    6
 O1 
A    7
 C5 
A    8
 O2 
A    9
 N2 
A   10
 C6 
A   11
 C7 
A   12
 C8 
A   13
 C9 
A   14
 C10
A   15
 N3 
A   16
 C11
A   17
 O3 
A   18
 C12
A   19
 C13
A   20
 N4 
A   21
 C14
A   22
 C15
A   23
 N5 
M  END
>  <similarity>  (82) 
NA

>  <smiles>  (82) 
Cn1cc(C(O)C(=O)Nc2cccc(NC(=O)CC#N)c2)cn1

>  <cmpd_id>  (82) 
ENAMINE:PV-003205731961

>  <used_subnode>  (82) 
NA

>  <used_synthon>  (82) 
NA

>  <ref_subnode>  (82) 
O=C(CO)Nc1ccccc1

>  <ref_synthon>  (82) 
N#CCC(=O)N[Xe]

>  <fragmentA>  (82) 
x0732_0A

>  <fragmentB>  (82) 
x0310_0A

>  <HA>  (82) 
23

>  <HBD>  (82) 
3

>  <HBA>  (82) 
6

>  <MW>  (82) 
313.1174893400001

>  <TPSA>  (82) 
120.04

>  <LogP>  (82) 
0.9443799999999998

>  <RBs>  (82) 
5

>  <G_bound>  (82) 
-4.8792435503566916

>  <G_unbound>  (82) 
0.71162911516188

>  <deltaG>  (82) 
-5.590872665518572

>  <comRMSD>  (82) 
0.7561574761817649

>  <substructure_overlap_check>  (82) 
True

>  <sucos>  (82) 
0.6123586149453388

>  <interactions>  (82) 
Hydrophobic_PRO-107,Hydrophobic_GLU-85,HBAcceptor_GLU-85,HBDonor_GLU-85,HBAcceptor_GLY-127,Hydrophobic_HIS-21,Hydrophobic_VAL-84

>  <total_num_ints>  (82) 
7

>  <total_num_ints_nonhyd>  (82) 
3

>  <num_uniq_frag_ints>  (82) 
6

>  <num_repl_uniq_ints>  (82) 
3

>  <num_uniq_ints_lost>  (82) 
3

>  <num_new_uniq_ints>  (82) 
4

>  <int_check>  (82) 
True

>  <original SMILES>  (82) 
Cn1cc(C(O)C(=O)Nc2cccc(NC(=O)CC#N)c2)cn1

>  <original_name>  (82) 
x0732_0A-x0310_0A_894_PXX

>  <ref_mols>  (82) 
Ax0732a,Ax0310a

>  <ref_pdb>  (82) 
Ax0310a

>  <rationale>  (82) 
FragNet: perfect merge incl O=C(CO)Nc1ccccc1,N#CCC(=O)N[Xe]

$$$$
x0365_0A-x0556_0A_1284_B1X
     RDKit          3D

 18 19  0  0  0  0  0  0  0  0999 V2000
    6.5790   15.2770   28.4770 N   0  0  0  0  0  0  0  0  0  0  0  0
    6.5150   14.0000   27.3830 S   0  0  0  0  0  6  0  0  0  0  0  0
    7.6940   14.0750   26.5510 O   0  0  0  0  0  0  0  0  0  0  0  0
    5.1790   14.0580   26.8390 O   0  0  0  0  0  0  0  0  0  0  0  0
    6.6440   12.5860   28.4670 C   0  0  0  0  0  0  0  0  0  0  0  0
    7.3420   12.7980   29.7490 C   0  0  0  0  0  0  0  0  0  0  0  0
    7.4780   11.6550   30.7020 C   0  0  0  0  0  0  0  0  0  0  0  0
    6.9340   10.4210   30.3370 C   0  0  0  0  0  0  0  0  0  0  0  0
    6.2790   10.2620   29.1090 C   0  0  0  0  0  0  0  0  0  0  0  0
    6.1170   11.3010   28.1650 C   0  0  0  0  0  0  0  0  0  0  0  0
    5.3850   10.9900   26.8920 C   0  0  0  0  0  0  0  0  0  0  0  0
    6.1230   10.0530   26.0540 N   0  0  0  0  0  0  0  0  0  0  0  0
    7.1830   10.5100   25.2830 C   0  0  0  0  0  0  0  0  0  0  0  0
    7.2850   11.8830   25.1390 C   0  0  0  0  0  0  0  0  0  0  0  0
    8.3060   12.4170   24.3720 C   0  0  0  0  0  0  0  0  0  0  0  0
    9.2130   11.5730   23.7570 C   0  0  0  0  0  0  0  0  0  0  0  0
    9.0570   10.2170   23.9430 C   0  0  0  0  0  0  0  0  0  0  0  0
    8.0740    9.6740   24.6840 N   0  0  0  0  0  0  0  0  0  0  0  0
  1  2  1  0
  2  3  2  0
  2  4  2  0
  2  5  1  0
  5  6  2  0
  6  7  1  0
  7  8  2  0
  8  9  1  0
  9 10  2  0
 10 11  1  0
 11 12  1  0
 12 13  1  0
 13 14  2  0
 14 15  1  0
 15 16  2  0
 16 17  1  0
 17 18  2  0
 10  5  1  0
 18 13  1  0
A    1
 N1 
A    2
 S1 
A    3
 O1 
A    4
 O2 
A    5
 C1 
A    6
 C2 
A    7
 C3 
A    8
 C4 
A    9
 C5 
A   10
 C6 
A   11
 C7 
A   12
 N2 
A   13
 C8 
A   14
 C9 
A   15
 C10
A   16
 C11
A   17
 C12
A   18
 N3 
M  END
>  <similarity>  (83) 
1.0

>  <smiles>  (83) 
NS(=O)(=O)c1ccccc1CNc1ccccn1

>  <cmpd_id>  (83) 
ENAMINE:Z2143572211

>  <used_subnode>  (83) 
NCc1ccccc1

>  <used_synthon>  (83) 
[Xe]c1ccccn1

>  <ref_subnode>  (83) 
NCc1ccccc1

>  <ref_synthon>  (83) 
[Xe]n1cccn1

>  <fragmentA>  (83) 
x0365_0A

>  <fragmentB>  (83) 
x0556_0A

>  <HA>  (83) 
18

>  <HBD>  (83) 
2

>  <HBA>  (83) 
4

>  <MW>  (83) 
263.072847656

>  <TPSA>  (83) 
85.08

>  <LogP>  (83) 
1.3411000000000002

>  <RBs>  (83) 
4

>  <G_bound>  (83) 
-3.969648376756328

>  <G_unbound>  (83) 
0.5523510866345466

>  <deltaG>  (83) 
-4.521999463390875

>  <comRMSD>  (83) 
0.3601698329533098

>  <substructure_overlap_check>  (83) 
True

>  <sucos>  (83) 
0.613745631327687

>  <interactions>  (83) 
Hydrophobic_PRO-107,Hydrophobic_GLU-106,HBAcceptor_SER-105,HBDonor_SER-105

>  <total_num_ints>  (83) 
4

>  <total_num_ints_nonhyd>  (83) 
2

>  <num_uniq_frag_ints>  (83) 
5

>  <num_repl_uniq_ints>  (83) 
3

>  <num_uniq_ints_lost>  (83) 
2

>  <num_new_uniq_ints>  (83) 
1

>  <int_check>  (83) 
True

>  <original SMILES>  (83) 
NS(=O)(=O)c1ccccc1CNc1ccccn1

>  <original_name>  (83) 
x0365_0A-x0556_0A_1284_B1X

>  <ref_mols>  (83) 
Ax0365a,Ax0556a

>  <ref_pdb>  (83) 
Ax0310a

>  <rationale>  (83) 
FragNet: 1 round bioisosteric merging incl NCc1ccccc1 and [Xe]c1ccccn1 replacing [Xe]n1cccn1

$$$$
x0365_0A-x0310_0A_2915_B1X
     RDKit          3D

 22 23  0  0  0  0  0  0  0  0999 V2000
   12.1680   14.0100   22.4430 C   0  0  0  0  0  0  0  0  0  0  0  0
   11.1070   13.5070   23.4080 C   0  0  0  0  0  0  0  0  0  0  0  0
   10.9990   13.9840   24.5330 O   0  0  0  0  0  0  0  0  0  0  0  0
   10.3170   12.5050   22.9040 N   0  0  0  0  0  0  0  0  0  0  0  0
    9.3410   11.8490   23.6640 C   0  0  0  0  0  0  0  0  0  0  0  0
    9.2000   10.4810   23.7700 C   0  0  0  0  0  0  0  0  0  0  0  0
    8.2240    9.8660   24.5370 C   0  0  0  0  0  0  0  0  0  0  0  0
    7.3800   10.7950   25.2020 C   0  0  0  0  0  0  0  0  0  0  0  0
    6.4240   10.1980   25.9290 N   0  0  0  0  0  0  0  0  0  0  0  0
    5.5240   10.9650   26.7810 C   0  0  0  0  0  0  0  0  0  0  0  0
    6.1630   11.2580   28.1100 C   0  0  0  0  0  0  0  0  0  0  0  0
    6.2280   10.2550   29.0920 C   0  0  0  0  0  0  0  0  0  0  0  0
    6.8130   10.5120   30.3180 C   0  0  0  0  0  0  0  0  0  0  0  0
    7.3410   11.7980   30.5640 C   0  0  0  0  0  0  0  0  0  0  0  0
    7.9840   12.1030   31.8940 C   0  0  0  0  0  0  0  0  0  0  0  0
    9.3400   11.9550   31.8820 F   0  0  0  0  0  0  0  0  0  0  0  0
    7.5330   11.3070   32.9050 F   0  0  0  0  0  0  0  0  0  0  0  0
    7.7530   13.3840   32.2970 F   0  0  0  0  0  0  0  0  0  0  0  0
    7.2740   12.7930   29.5850 C   0  0  0  0  0  0  0  0  0  0  0  0
    6.6870   12.5240   28.3600 C   0  0  0  0  0  0  0  0  0  0  0  0
    7.4750   12.1310   25.1360 N   0  0  0  0  0  0  0  0  0  0  0  0
    8.4510   12.6280   24.3710 C   0  0  0  0  0  0  0  0  0  0  0  0
  1  2  1  0
  2  3  2  0
  2  4  1  0
  4  5  1  0
  5  6  2  0
  6  7  1  0
  7  8  2  0
  8  9  1  0
  9 10  1  0
 10 11  1  0
 11 12  2  0
 12 13  1  0
 13 14  2  0
 14 15  1  0
 15 16  1  0
 15 17  1  0
 15 18  1  0
 14 19  1  0
 19 20  2  0
  8 21  1  0
 21 22  2  0
 22  5  1  0
 20 11  1  0
A    1
 C1 
A    2
 C2 
A    3
 O1 
A    4
 N1 
A    5
 C3 
A    6
 C4 
A    7
 C5 
A    8
 C6 
A    9
 N2 
A   10
 C7 
A   11
 C8 
A   12
 C9 
A   13
 C10
A   14
 C11
A   15
 C12
A   16
 F1 
A   17
 F2 
A   18
 F3 
A   19
 C13
A   20
 C14
A   21
 N3 
A   22
 C15
M  END
>  <similarity>  (84) 
1.0

>  <smiles>  (84) 
CC(=O)Nc1ccc(NCc2ccc(C(F)(F)F)cc2)nc1

>  <cmpd_id>  (84) 
ENAMINE:PV-001925352732

>  <used_subnode>  (84) 
NCc1ccccc1

>  <used_synthon>  (84) 
CC(=O)N[Xe]

>  <ref_subnode>  (84) 
NCc1ccccc1

>  <ref_synthon>  (84) 
N#CCC(=O)N[Xe]

>  <fragmentA>  (84) 
x0365_0A

>  <fragmentB>  (84) 
x0310_0A

>  <HA>  (84) 
22

>  <HBD>  (84) 
2

>  <HBA>  (84) 
3

>  <MW>  (84) 
309.108896728

>  <TPSA>  (84) 
54.02

>  <LogP>  (84) 
3.6709000000000014

>  <RBs>  (84) 
4

>  <G_bound>  (84) 
-8.305983141784003

>  <G_unbound>  (84) 
0.4812133062708682

>  <deltaG>  (84) 
-8.787196448054871

>  <comRMSD>  (84) 
0.96701860575833

>  <substructure_overlap_check>  (84) 
True

>  <sucos>  (84) 
0.628403193166471

>  <interactions>  (84) 
Hydrophobic_PRO-107,Hydrophobic_HIS-21,HBDonor_SER-125,Hydrophobic_GLU-106,HBDonor_SER-105

>  <total_num_ints>  (84) 
5

>  <total_num_ints_nonhyd>  (84) 
2

>  <num_uniq_frag_ints>  (84) 
6

>  <num_repl_uniq_ints>  (84) 
5

>  <num_uniq_ints_lost>  (84) 
1

>  <num_new_uniq_ints>  (84) 
0

>  <int_check>  (84) 
True

>  <original SMILES>  (84) 
CC(=O)Nc1ccc(NCc2ccc(C(F)(F)F)cc2)nc1

>  <original_name>  (84) 
x0365_0A-x0310_0A_2915_B1X

>  <ref_mols>  (84) 
Ax0365a,Ax0310a

>  <ref_pdb>  (84) 
Ax0310a

>  <rationale>  (84) 
FragNet: 1 round bioisosteric merging incl NCc1ccccc1 and CC(=O)N[Xe] replacing N#CCC(=O)N[Xe]

$$$$
x0365_0A-x0310_0A_3047_B1X
     RDKit          3D

 21 22  0  0  0  0  0  0  0  0999 V2000
    8.7290   15.9130   30.8060 C   0  0  0  0  0  0  0  0  0  0  0  0
    8.8740   14.5720   30.1270 C   0  0  0  0  0  0  0  0  0  0  0  0
    7.6640   14.1970   29.4650 O   0  0  0  0  0  0  0  0  0  0  0  0
    7.2440   12.8900   29.4500 C   0  0  0  0  0  0  0  0  0  0  0  0
    7.4180   11.9180   30.4440 C   0  0  0  0  0  0  0  0  0  0  0  0
    6.9380   10.6160   30.3090 C   0  0  0  0  0  0  0  0  0  0  0  0
    6.2570   10.2640   29.1390 C   0  0  0  0  0  0  0  0  0  0  0  0
    6.0660   11.2090   28.1240 C   0  0  0  0  0  0  0  0  0  0  0  0
    5.3880   10.8290   26.9860 C   0  0  0  0  0  0  0  0  0  0  0  0
    6.3310   10.1390   26.1200 N   0  0  0  0  0  0  0  0  0  0  0  0
    7.2970   10.7640   25.3340 C   0  0  0  0  0  0  0  0  0  0  0  0
    7.4340   12.0880   25.2260 C   0  0  0  0  0  0  0  0  0  0  0  0
    8.4290   12.6570   24.4150 C   0  0  0  0  0  0  0  0  0  0  0  0
    9.3350   11.8940   23.6710 C   0  0  0  0  0  0  0  0  0  0  0  0
   10.3210   12.4900   22.8830 N   0  0  0  0  0  0  0  0  0  0  0  0
   11.1260   13.4950   23.3590 C   0  0  0  0  0  0  0  0  0  0  0  0
   12.1490   13.9900   22.3730 C   0  0  0  0  0  0  0  0  0  0  0  0
   11.0410   13.9880   24.4780 O   0  0  0  0  0  0  0  0  0  0  0  0
    9.2640   10.5160   23.7220 C   0  0  0  0  0  0  0  0  0  0  0  0
    8.2920    9.9260   24.5150 C   0  0  0  0  0  0  0  0  0  0  0  0
    6.5620   12.5160   28.2860 C   0  0  0  0  0  0  0  0  0  0  0  0
  1  2  1  0
  2  3  1  0
  3  4  1  0
  4  5  2  0
  5  6  1  0
  6  7  2  0
  7  8  1  0
  8  9  1  0
  9 10  1  0
 10 11  1  0
 11 12  2  0
 12 13  1  0
 13 14  2  0
 14 15  1  0
 15 16  1  0
 16 17  1  0
 16 18  2  0
 14 19  1  0
 19 20  2  0
  8 21  2  0
 21  4  1  0
 20 11  1  0
A    1
 C1 
A    2
 C2 
A    3
 O1 
A    4
 C3 
A    5
 C4 
A    6
 C5 
A    7
 C6 
A    8
 C7 
A    9
 C8 
A   10
 N1 
A   11
 C9 
A   12
 C10
A   13
 C11
A   14
 C12
A   15
 N2 
A   16
 C13
A   17
 C14
A   18
 O2 
A   19
 C15
A   20
 C16
A   21
 C17
M  END
>  <similarity>  (85) 
1.0

>  <smiles>  (85) 
CCOc1cccc(CNc2ccc(NC(C)=O)cc2)c1

>  <cmpd_id>  (85) 
ENAMINE:Z636361812

>  <used_subnode>  (85) 
NCc1ccccc1

>  <used_synthon>  (85) 
CC(=O)N[Xe]

>  <ref_subnode>  (85) 
NCc1ccccc1

>  <ref_synthon>  (85) 
N#CCC(=O)N[Xe]

>  <fragmentA>  (85) 
x0365_0A

>  <fragmentB>  (85) 
x0310_0A

>  <HA>  (85) 
21

>  <HBD>  (85) 
2

>  <HBA>  (85) 
3

>  <MW>  (85) 
284.15247788

>  <TPSA>  (85) 
50.36

>  <LogP>  (85) 
3.655800000000002

>  <RBs>  (85) 
6

>  <G_bound>  (85) 
-10.72041969259095

>  <G_unbound>  (85) 
-0.058487614810042

>  <deltaG>  (85) 
-10.661932077780907

>  <comRMSD>  (85) 
0.4823990187085694

>  <substructure_overlap_check>  (85) 
True

>  <sucos>  (85) 
0.6308453655966191

>  <interactions>  (85) 
Hydrophobic_PRO-107,Hydrophobic_HIS-21,HBDonor_SER-125,Hydrophobic_GLU-106,HBDonor_SER-105,Hydrophobic_GLU-88

>  <total_num_ints>  (85) 
6

>  <total_num_ints_nonhyd>  (85) 
2

>  <num_uniq_frag_ints>  (85) 
6

>  <num_repl_uniq_ints>  (85) 
5

>  <num_uniq_ints_lost>  (85) 
1

>  <num_new_uniq_ints>  (85) 
1

>  <int_check>  (85) 
True

>  <original SMILES>  (85) 
CCOc1cccc(CNc2ccc(NC(C)=O)cc2)c1

>  <original_name>  (85) 
x0365_0A-x0310_0A_3047_B1X

>  <ref_mols>  (85) 
Ax0365a,Ax0310a

>  <ref_pdb>  (85) 
Ax0310a

>  <rationale>  (85) 
FragNet: 1 round bioisosteric merging incl NCc1ccccc1 and CC(=O)N[Xe] replacing N#CCC(=O)N[Xe]

$$$$
x0365_0A-x0310_0A_1894_B1X
     RDKit          3D

 24 26  0  0  0  0  0  0  0  0999 V2000
   12.0290   13.5340   22.2970 F   0  0  0  0  0  0  0  0  0  0  0  0
   11.0320   13.2680   23.1740 C   0  0  0  0  0  0  0  0  0  0  0  0
   10.0290   14.1280   22.8870 F   0  0  0  0  0  0  0  0  0  0  0  0
   10.5660   11.9460   22.9410 O   0  0  0  0  0  0  0  0  0  0  0  0
    9.4950   11.5680   23.6800 C   0  0  0  0  0  0  0  0  0  0  0  0
    8.6260   12.4060   24.3720 C   0  0  0  0  0  0  0  0  0  0  0  0
    7.5250   11.9240   25.1310 C   0  0  0  0  0  0  0  0  0  0  0  0
    7.3300   10.5530   25.1670 C   0  0  0  0  0  0  0  0  0  0  0  0
    6.2520   10.0170   25.8860 N   0  0  0  0  0  0  0  0  0  0  0  0
    5.4540   10.9090   26.7300 C   0  0  0  0  0  0  0  0  0  0  0  0
    6.1570   11.2270   28.0500 C   0  0  0  0  0  0  0  0  0  0  0  0
    6.2740   10.1800   29.1210 C   0  0  0  0  0  0  0  0  0  0  0  0
    6.9260   10.4870   30.3100 C   0  0  0  0  0  0  0  0  0  0  0  0
    7.4700   11.7550   30.5160 C   0  0  0  0  0  0  0  0  0  0  0  0
    8.1280   12.0270   31.7150 C   0  0  0  0  0  0  0  0  0  0  0  0
    7.9900   13.2490   32.3800 C   0  0  0  0  0  0  0  0  0  0  0  0
    8.7110   13.4650   33.6350 C   0  0  0  0  0  0  0  0  0  0  0  0
    9.5140   12.4310   34.1220 C   0  0  0  0  0  0  0  0  0  0  0  0
    9.6520   11.2510   33.4860 N   0  0  0  0  0  0  0  0  0  0  0  0
    8.9680   11.0800   32.3200 C   0  0  0  0  0  0  0  0  0  0  0  0
    7.3490   12.7390   29.5090 C   0  0  0  0  0  0  0  0  0  0  0  0
    6.7080   12.4850   28.3020 C   0  0  0  0  0  0  0  0  0  0  0  0
    8.1680    9.6930   24.4950 N   0  0  0  0  0  0  0  0  0  0  0  0
    9.2110   10.2090   23.7800 C   0  0  0  0  0  0  0  0  0  0  0  0
  1  2  1  0
  2  3  1  0
  2  4  1  0
  4  5  1  0
  5  6  2  0
  6  7  1  0
  7  8  2  0
  8  9  1  0
  9 10  1  0
 10 11  1  0
 11 12  2  0
 12 13  1  0
 13 14  2  0
 14 15  1  0
 15 16  2  0
 16 17  1  0
 17 18  2  0
 18 19  1  0
 19 20  2  0
 14 21  1  0
 21 22  2  0
  8 23  1  0
 23 24  2  0
 24  5  1  0
 22 11  1  0
 20 15  1  0
A    1
 F1 
A    2
 C1 
A    3
 F2 
A    4
 O1 
A    5
 C2 
A    6
 C3 
A    7
 C4 
A    8
 C5 
A    9
 N1 
A   10
 C6 
A   11
 C7 
A   12
 C8 
A   13
 C9 
A   14
 C10
A   15
 C11
A   16
 C12
A   17
 C13
A   18
 C14
A   19
 N2 
A   20
 C15
A   21
 C16
A   22
 C17
A   23
 N3 
A   24
 C18
M  END
>  <similarity>  (86) 
1.0

>  <smiles>  (86) 
FC(F)Oc1ccc(NCc2ccc(-c3cccnc3)cc2)nc1

>  <cmpd_id>  (86) 
ENAMINE:Z1570879860

>  <used_subnode>  (86) 
NCc1ccccc1

>  <used_synthon>  (86) 
[Xe]c1cccnc1

>  <ref_subnode>  (86) 
NCc1ccccc1

>  <ref_synthon>  (86) 
[Xe]n1cccn1

>  <fragmentA>  (86) 
x0365_0A

>  <fragmentB>  (86) 
x0310_0A

>  <HA>  (86) 
24

>  <HBD>  (86) 
1

>  <HBA>  (86) 
4

>  <MW>  (86) 
327.11831854

>  <TPSA>  (86) 
47.04

>  <LogP>  (86) 
4.3571000000000035

>  <RBs>  (86) 
6

>  <G_bound>  (86) 
-4.353508918528177

>  <G_unbound>  (86) 
0.3303608951495286

>  <deltaG>  (86) 
-4.683869813677705

>  <comRMSD>  (86) 
0.3632671356027201

>  <substructure_overlap_check>  (86) 
True

>  <sucos>  (86) 
0.6318185307907752

>  <interactions>  (86) 
Hydrophobic_PRO-107,Hydrophobic_GLU-106,HBAcceptor_SER-105,HBDonor_SER-105

>  <total_num_ints>  (86) 
4

>  <total_num_ints_nonhyd>  (86) 
2

>  <num_uniq_frag_ints>  (86) 
6

>  <num_repl_uniq_ints>  (86) 
3

>  <num_uniq_ints_lost>  (86) 
3

>  <num_new_uniq_ints>  (86) 
1

>  <int_check>  (86) 
True

>  <original SMILES>  (86) 
FC(F)Oc1ccc(NCc2ccc(-c3cccnc3)cc2)nc1

>  <original_name>  (86) 
x0365_0A-x0310_0A_1894_B1X

>  <ref_mols>  (86) 
Ax0365a,Ax0310a

>  <ref_pdb>  (86) 
Ax0310a

>  <rationale>  (86) 
FragNet: 1 round bioisosteric merging incl NCc1ccccc1 and [Xe]c1cccnc1 replacing [Xe]n1cccn1

$$$$
x0365_0A-x0310_0A_2924_B1X
     RDKit          3D

 20 21  0  0  0  0  0  0  0  0999 V2000
    7.2270   12.3830   33.0640 C   0  0  0  0  0  0  0  0  0  0  0  0
    8.1220   12.1390   31.8590 C   0  0  0  0  0  0  0  0  0  0  0  0
    7.4110   11.7410   30.5920 C   0  0  0  0  0  0  0  0  0  0  0  0
    6.8800   10.5290   30.3360 C   0  0  0  0  0  0  0  0  0  0  0  0
    6.1930   10.2300   29.0460 C   0  0  0  0  0  0  0  0  0  0  0  0
    6.1050   11.2370   28.0840 C   0  0  0  0  0  0  0  0  0  0  0  0
    5.4790   11.0050   26.8690 C   0  0  0  0  0  0  0  0  0  0  0  0
    6.3120   10.1730   26.0110 N   0  0  0  0  0  0  0  0  0  0  0  0
    7.3340   10.7410   25.2310 C   0  0  0  0  0  0  0  0  0  0  0  0
    8.2080    9.8840   24.5520 C   0  0  0  0  0  0  0  0  0  0  0  0
    9.3000   10.4400   23.6980 C   0  0  0  0  0  0  0  0  0  0  0  0
    9.3990   11.8080   23.6160 C   0  0  0  0  0  0  0  0  0  0  0  0
   10.3540   12.5040   22.8740 N   0  0  0  0  0  0  0  0  0  0  0  0
   11.1210   13.5120   23.4000 C   0  0  0  0  0  0  0  0  0  0  0  0
   12.1740   14.0650   22.4190 C   0  0  0  0  0  0  0  0  0  0  0  0
   11.0040   13.9680   24.5310 O   0  0  0  0  0  0  0  0  0  0  0  0
    8.4710   12.5590   24.3410 C   0  0  0  0  0  0  0  0  0  0  0  0
    7.4710   12.0740   25.1230 N   0  0  0  0  0  0  0  0  0  0  0  0
    6.6610   12.4860   28.3750 C   0  0  0  0  0  0  0  0  0  0  0  0
    7.2990   12.7320   29.6000 C   0  0  0  0  0  0  0  0  0  0  0  0
  1  2  2  3
  2  3  1  0
  3  4  2  0
  4  5  1  0
  5  6  2  0
  6  7  1  0
  7  8  1  0
  8  9  1  0
  9 10  2  0
 10 11  1  0
 11 12  2  0
 12 13  1  0
 13 14  1  0
 14 15  1  0
 14 16  2  0
 12 17  1  0
 17 18  2  0
  6 19  1  0
 19 20  2  0
 20  3  1  0
 18  9  1  0
A    1
 C1 
A    2
 C2 
A    3
 C3 
A    4
 C4 
A    5
 C5 
A    6
 C6 
A    7
 C7 
A    8
 N1 
A    9
 C8 
A   10
 C9 
A   11
 C10
A   12
 C11
A   13
 N2 
A   14
 C12
A   15
 C13
A   16
 O1 
A   17
 C14
A   18
 N3 
A   19
 C15
A   20
 C16
M  END
>  <similarity>  (87) 
1.0

>  <smiles>  (87) 
C=Cc1ccc(CNc2ccc(NC(C)=O)cn2)cc1

>  <cmpd_id>  (87) 
ENAMINE:PV-002507316974

>  <used_subnode>  (87) 
NCc1ccccc1

>  <used_synthon>  (87) 
CC(=O)N[Xe]

>  <ref_subnode>  (87) 
NCc1ccccc1

>  <ref_synthon>  (87) 
N#CCC(=O)N[Xe]

>  <fragmentA>  (87) 
x0365_0A

>  <fragmentB>  (87) 
x0310_0A

>  <HA>  (87) 
20

>  <HBD>  (87) 
2

>  <HBA>  (87) 
3

>  <MW>  (87) 
267.137162164

>  <TPSA>  (87) 
54.019999999999996

>  <LogP>  (87) 
3.2951000000000015

>  <RBs>  (87) 
5

>  <G_bound>  (87) 
-8.613259973711923

>  <G_unbound>  (87) 
0.3518823935300793

>  <deltaG>  (87) 
-8.965142367242002

>  <comRMSD>  (87) 
0.9857450435191598

>  <substructure_overlap_check>  (87) 
True

>  <sucos>  (87) 
0.6402246300854395

>  <interactions>  (87) 
Hydrophobic_PRO-107,Hydrophobic_HIS-21,HBDonor_SER-125,Hydrophobic_GLU-106,HBDonor_SER-105

>  <total_num_ints>  (87) 
5

>  <total_num_ints_nonhyd>  (87) 
2

>  <num_uniq_frag_ints>  (87) 
6

>  <num_repl_uniq_ints>  (87) 
5

>  <num_uniq_ints_lost>  (87) 
1

>  <num_new_uniq_ints>  (87) 
0

>  <int_check>  (87) 
True

>  <original SMILES>  (87) 
C=Cc1ccc(CNc2ccc(NC(C)=O)cn2)cc1

>  <original_name>  (87) 
x0365_0A-x0310_0A_2924_B1X

>  <ref_mols>  (87) 
Ax0365a,Ax0310a

>  <ref_pdb>  (87) 
Ax0310a

>  <rationale>  (87) 
FragNet: 1 round bioisosteric merging incl NCc1ccccc1 and CC(=O)N[Xe] replacing N#CCC(=O)N[Xe]

$$$$
x0365_0A-x0310_0A_2837_B1X
     RDKit          3D

 21 23  0  0  0  0  0  0  0  0999 V2000
   12.1850   14.0400   22.4420 C   0  0  0  0  0  0  0  0  0  0  0  0
   11.1140   13.4320   23.3190 C   0  0  0  0  0  0  0  0  0  0  0  0
   11.0080   14.0820   24.5840 O   0  0  0  0  0  0  0  0  0  0  0  0
   10.4000   12.3740   22.8210 N   0  0  0  0  0  0  0  0  0  0  0  0
    9.4200   11.7380   23.5810 C   0  0  0  0  0  0  0  0  0  0  0  0
    9.2790   10.3580   23.7090 C   0  0  0  0  0  0  0  0  0  0  0  0
    8.2530    9.8620   24.5020 C   0  0  0  0  0  0  0  0  0  0  0  0
    7.3210   10.8110   25.2010 C   0  0  0  0  0  0  0  0  0  0  0  0
    6.2600   10.1680   25.9940 N   0  0  0  0  0  0  0  0  0  0  0  0
    5.4840   11.0250   26.9020 C   0  0  0  0  0  0  0  0  0  0  0  0
    6.1250   11.2860   28.1080 C   0  0  0  0  0  0  0  0  0  0  0  0
    6.1920   10.2370   29.0300 C   0  0  0  0  0  0  0  0  0  0  0  0
    6.8100   10.4030   30.2600 C   0  0  0  0  0  0  0  0  0  0  0  0
    7.4070   11.7480   30.5720 C   0  0  0  0  0  0  0  0  0  0  0  0
    7.3160   12.7590   29.6270 C   0  0  0  0  0  0  0  0  0  0  0  0
    6.6880   12.5700   28.3920 C   0  0  0  0  0  0  0  0  0  0  0  0
    6.6460   13.6490   27.5060 C   0  0  0  0  0  0  0  0  0  0  0  0
    6.4190   14.8590   27.9690 C   0  0  0  0  0  0  0  0  0  0  0  0
    7.7770   14.8710   27.5670 C   0  0  0  0  0  0  0  0  0  0  0  0
    7.4630   12.1300   25.0770 N   0  0  0  0  0  0  0  0  0  0  0  0
    8.5200   12.5590   24.2630 C   0  0  0  0  0  0  0  0  0  0  0  0
  1  2  1  0
  2  3  2  0
  2  4  1  0
  4  5  1  0
  5  6  2  0
  6  7  1  0
  7  8  2  0
  8  9  1  0
  9 10  1  0
 10 11  1  0
 11 12  2  0
 12 13  1  0
 13 14  2  0
 14 15  1  0
 15 16  2  0
 16 17  1  0
 17 18  1  0
 18 19  1  0
  8 20  1  0
 20 21  2  0
 21  5  1  0
 16 11  1  0
 19 17  1  0
A    1
 C1 
A    2
 C2 
A    3
 O1 
A    4
 N1 
A    5
 C3 
A    6
 C4 
A    7
 C5 
A    8
 C6 
A    9
 N2 
A   10
 C7 
A   11
 C8 
A   12
 C9 
A   13
 C10
A   14
 C11
A   15
 C12
A   16
 C13
A   17
 C14
A   18
 C15
A   19
 C16
A   20
 N3 
A   21
 C17
M  END
>  <similarity>  (88) 
1.0

>  <smiles>  (88) 
CC(=O)Nc1ccc(NCc2ccccc2C2CC2)nc1

>  <cmpd_id>  (88) 
ENAMINE:PV-002092131163

>  <used_subnode>  (88) 
NCc1ccccc1

>  <used_synthon>  (88) 
CC(=O)N[Xe]

>  <ref_subnode>  (88) 
NCc1ccccc1

>  <ref_synthon>  (88) 
N#CCC(=O)N[Xe]

>  <fragmentA>  (88) 
x0365_0A

>  <fragmentB>  (88) 
x0310_0A

>  <HA>  (88) 
21

>  <HBD>  (88) 
2

>  <HBA>  (88) 
3

>  <MW>  (88) 
281.152812228

>  <TPSA>  (88) 
54.02

>  <LogP>  (88) 
3.5295000000000023

>  <RBs>  (88) 
5

>  <G_bound>  (88) 
-7.689049177241889

>  <G_unbound>  (88) 
0.9251348058054247

>  <deltaG>  (88) 
-8.614183983047313

>  <comRMSD>  (88) 
0.389182809568504

>  <substructure_overlap_check>  (88) 
True

>  <sucos>  (88) 
0.6435864441088883

>  <interactions>  (88) 
Hydrophobic_PRO-107,Hydrophobic_HIS-21,HBDonor_SER-125,Hydrophobic_GLU-106,HBDonor_SER-105

>  <total_num_ints>  (88) 
5

>  <total_num_ints_nonhyd>  (88) 
2

>  <num_uniq_frag_ints>  (88) 
6

>  <num_repl_uniq_ints>  (88) 
5

>  <num_uniq_ints_lost>  (88) 
1

>  <num_new_uniq_ints>  (88) 
0

>  <int_check>  (88) 
True

>  <original SMILES>  (88) 
CC(=O)Nc1ccc(NCc2ccccc2C2CC2)nc1

>  <original_name>  (88) 
x0365_0A-x0310_0A_2837_B1X

>  <ref_mols>  (88) 
Ax0365a,Ax0310a

>  <ref_pdb>  (88) 
Ax0310a

>  <rationale>  (88) 
FragNet: 1 round bioisosteric merging incl NCc1ccccc1 and CC(=O)N[Xe] replacing N#CCC(=O)N[Xe]

$$$$
x0365_0A-x0556_0A_1007_B1X
     RDKit          3D

 13 14  0  0  0  0  0  0  0  0999 V2000
    7.3740   11.7640   30.5620 C   0  0  0  0  0  0  0  0  0  0  0  0
    6.8340   10.5080   30.3280 C   0  0  0  0  0  0  0  0  0  0  0  0
    6.2060   10.2680   29.1070 C   0  0  0  0  0  0  0  0  0  0  0  0
    6.1270   11.2830   28.1390 C   0  0  0  0  0  0  0  0  0  0  0  0
    5.4540   11.0130   26.8320 C   0  0  0  0  0  0  0  0  0  0  0  0
    6.2360   10.0800   26.0570 N   0  0  0  0  0  0  0  0  0  0  0  0
    7.3440   10.3850   25.3560 C   0  0  0  0  0  0  0  0  0  0  0  0
    7.8660   11.6720   25.1370 C   0  0  0  0  0  0  0  0  0  0  0  0
    8.9880   11.4630   24.3760 C   0  0  0  0  0  0  0  0  0  0  0  0
    9.1420   10.1370   24.1480 O   0  0  0  0  0  0  0  0  0  0  0  0
    8.1120    9.4680   24.7460 N   0  0  0  0  0  0  0  0  0  0  0  0
    6.6820   12.5470   28.4000 C   0  0  0  0  0  0  0  0  0  0  0  0
    7.3090   12.7880   29.6200 C   0  0  0  0  0  0  0  0  0  0  0  0
  1  2  2  0
  2  3  1  0
  3  4  2  0
  4  5  1  0
  5  6  1  0
  6  7  1  0
  7  8  1  0
  8  9  2  0
  9 10  1  0
 10 11  1  0
  4 12  1  0
 12 13  2  0
 13  1  1  0
 11  7  2  0
A    1
 C1 
A    2
 C2 
A    3
 C3 
A    4
 C4 
A    5
 C5 
A    6
 N1 
A    7
 C6 
A    8
 C7 
A    9
 C8 
A   10
 O1 
A   11
 N2 
A   12
 C9 
A   13
 C10
M  END
>  <similarity>  (89) 
1.0

>  <smiles>  (89) 
c1ccc(CNc2ccon2)cc1

>  <cmpd_id>  (89) 
CHEMSPACE-BB:CSMB00000111881,ENAMINE:Z1606797992

>  <used_subnode>  (89) 
NCc1ccccc1

>  <used_synthon>  (89) 
[Xe]c1ccon1

>  <ref_subnode>  (89) 
NCc1ccccc1

>  <ref_synthon>  (89) 
[Xe]n1cccn1

>  <fragmentA>  (89) 
x0365_0A

>  <fragmentB>  (89) 
x0556_0A

>  <HA>  (89) 
13

>  <HBD>  (89) 
1

>  <HBA>  (89) 
3

>  <MW>  (89) 
174.07931294

>  <TPSA>  (89) 
38.06

>  <LogP>  (89) 
2.2867000000000006

>  <RBs>  (89) 
3

>  <G_bound>  (89) 
-3.43247097230871

>  <G_unbound>  (89) 
0.09137535689601765

>  <deltaG>  (89) 
-3.5238463292047277

>  <comRMSD>  (89) 
0.28664982357521734

>  <substructure_overlap_check>  (89) 
True

>  <sucos>  (89) 
0.6494965640531447

>  <interactions>  (89) 
Hydrophobic_PRO-107,Hydrophobic_GLU-106,HBAcceptor_SER-105,HBDonor_SER-105

>  <total_num_ints>  (89) 
4

>  <total_num_ints_nonhyd>  (89) 
2

>  <num_uniq_frag_ints>  (89) 
5

>  <num_repl_uniq_ints>  (89) 
3

>  <num_uniq_ints_lost>  (89) 
2

>  <num_new_uniq_ints>  (89) 
1

>  <int_check>  (89) 
True

>  <original SMILES>  (89) 
c1ccc(CNc2ccon2)cc1

>  <original_name>  (89) 
x0365_0A-x0556_0A_1007_B1X

>  <ref_mols>  (89) 
Ax0365a,Ax0556a

>  <ref_pdb>  (89) 
Ax0310a

>  <rationale>  (89) 
FragNet: 1 round bioisosteric merging incl NCc1ccccc1 and [Xe]c1ccon1 replacing [Xe]n1cccn1

$$$$
x0365_0A-x0310_0A_2832_B1X
     RDKit          3D

 22 23  0  0  0  0  0  0  0  0999 V2000
   12.4110   15.3560   22.3950 C   0  0  0  0  0  0  0  0  0  0  0  0
   12.2630   13.8520   22.4510 C   0  0  0  0  0  0  0  0  0  0  0  0
   11.1650   13.4200   23.3990 C   0  0  0  0  0  0  0  0  0  0  0  0
   11.0430   13.9010   24.5180 O   0  0  0  0  0  0  0  0  0  0  0  0
   10.3520   12.4510   22.8670 N   0  0  0  0  0  0  0  0  0  0  0  0
    9.3880   11.7810   23.6150 C   0  0  0  0  0  0  0  0  0  0  0  0
    9.2670   10.4100   23.7160 C   0  0  0  0  0  0  0  0  0  0  0  0
    8.2620    9.8650   24.5060 C   0  0  0  0  0  0  0  0  0  0  0  0
    7.3510   10.6520   25.2150 C   0  0  0  0  0  0  0  0  0  0  0  0
    6.3240   10.1340   26.0090 N   0  0  0  0  0  0  0  0  0  0  0  0
    5.4380   10.9240   26.8420 C   0  0  0  0  0  0  0  0  0  0  0  0
    6.1260   11.2420   28.1340 C   0  0  0  0  0  0  0  0  0  0  0  0
    6.2030   10.2630   29.1290 C   0  0  0  0  0  0  0  0  0  0  0  0
    6.8390   10.5320   30.3370 C   0  0  0  0  0  0  0  0  0  0  0  0
    7.4070   11.7890   30.5600 C   0  0  0  0  0  0  0  0  0  0  0  0
    7.3380   12.7800   29.5710 C   0  0  0  0  0  0  0  0  0  0  0  0
    7.9310   14.1300   29.7620 C   0  0  0  0  0  0  0  0  0  0  0  0
    8.1540   14.5480   31.0450 N   0  0  0  0  0  0  0  0  0  0  0  0
    8.2180   14.8520   28.8140 O   0  0  0  0  0  0  0  0  0  0  0  0
    6.6950   12.5040   28.3570 C   0  0  0  0  0  0  0  0  0  0  0  0
    7.4860   12.0310   25.1030 C   0  0  0  0  0  0  0  0  0  0  0  0
    8.4890   12.5910   24.3150 C   0  0  0  0  0  0  0  0  0  0  0  0
  1  2  1  0
  2  3  1  0
  3  4  2  0
  3  5  1  0
  5  6  1  0
  6  7  2  0
  7  8  1  0
  8  9  2  0
  9 10  1  0
 10 11  1  0
 11 12  1  0
 12 13  2  0
 13 14  1  0
 14 15  2  0
 15 16  1  0
 16 17  1  0
 17 18  1  0
 17 19  2  0
 16 20  2  0
  9 21  1  0
 21 22  2  0
 22  6  1  0
 20 12  1  0
A    1
 C1 
A    2
 C2 
A    3
 C3 
A    4
 O1 
A    5
 N1 
A    6
 C4 
A    7
 C5 
A    8
 C6 
A    9
 C7 
A   10
 N2 
A   11
 C8 
A   12
 C9 
A   13
 C10
A   14
 C11
A   15
 C12
A   16
 C13
A   17
 C14
A   18
 N3 
A   19
 O2 
A   20
 C15
A   21
 C16
A   22
 C17
M  END
>  <similarity>  (90) 
1.0

>  <smiles>  (90) 
CCC(=O)Nc1ccc(NCc2cccc(C(N)=O)c2)cc1

>  <cmpd_id>  (90) 
ENAMINE:Z1462627721

>  <used_subnode>  (90) 
NCc1ccccc1

>  <used_synthon>  (90) 
CCC(=O)N[Xe]

>  <ref_subnode>  (90) 
NCc1ccccc1

>  <ref_synthon>  (90) 
N#CCC(=O)N[Xe]

>  <fragmentA>  (90) 
x0365_0A

>  <fragmentB>  (90) 
x0310_0A

>  <HA>  (90) 
22

>  <HBD>  (90) 
3

>  <HBA>  (90) 
3

>  <MW>  (90) 
297.147726848

>  <TPSA>  (90) 
84.22

>  <LogP>  (90) 
2.7461

>  <RBs>  (90) 
6

>  <G_bound>  (90) 
-11.240801865829004

>  <G_unbound>  (90) 
0.2907993660496622

>  <deltaG>  (90) 
-11.531601231878666

>  <comRMSD>  (90) 
0.48902324769570915

>  <substructure_overlap_check>  (90) 
True

>  <sucos>  (90) 
0.6670665304650875

>  <interactions>  (90) 
Hydrophobic_TYR-90,Hydrophobic_PRO-107,Hydrophobic_HIS-21,Hydrophobic_TYR-89,HBDonor_SER-125,Hydrophobic_GLU-106,HBDonor_SER-105

>  <total_num_ints>  (90) 
7

>  <total_num_ints_nonhyd>  (90) 
2

>  <num_uniq_frag_ints>  (90) 
6

>  <num_repl_uniq_ints>  (90) 
5

>  <num_uniq_ints_lost>  (90) 
1

>  <num_new_uniq_ints>  (90) 
2

>  <int_check>  (90) 
True

>  <original SMILES>  (90) 
CCC(=O)Nc1ccc(NCc2cccc(C(N)=O)c2)cc1

>  <original_name>  (90) 
x0365_0A-x0310_0A_2832_B1X

>  <ref_mols>  (90) 
Ax0365a,Ax0310a

>  <ref_pdb>  (90) 
Ax0310a

>  <rationale>  (90) 
FragNet: 1 round bioisosteric merging incl NCc1ccccc1 and CCC(=O)N[Xe] replacing N#CCC(=O)N[Xe]

$$$$
x0365_0A-x0310_0A_2896_B1X_rgrp-1
     RDKit          3D

 20 21  0  0  0  0  0  0  0  0999 V2000
   12.1840   14.1220   22.3230 C   0  0  0  0  0  0  0  0  0  0  0  0
   11.1990   13.6190   23.3090 C   0  0  0  0  0  0  0  0  0  0  0  0
   11.1590   14.2610   24.5070 O   0  0  0  0  0  0  0  0  0  0  0  0
   10.4320   12.5530   22.8910 N   0  0  0  0  0  0  0  0  0  0  0  0
    9.4240   11.9290   23.6550 C   0  0  0  0  0  0  0  0  0  0  0  0
    8.5400   12.7020   24.3750 C   0  0  0  0  0  0  0  0  0  0  0  0
    7.4810   12.1370   25.1920 C   0  0  0  0  0  0  0  0  0  0  0  0
    7.3630   10.7080   25.2400 C   0  0  0  0  0  0  0  0  0  0  0  0
    6.3460   10.2150   26.0330 N   0  0  0  0  0  0  0  0  0  0  0  0
    5.5730   10.9310   26.9770 C   0  0  0  0  0  0  0  0  0  0  0  0
    6.1290   11.2210   28.2240 C   0  0  0  0  0  0  0  0  0  0  0  0
    6.1500   10.2490   29.2210 C   0  0  0  0  0  0  0  0  0  0  0  0
    5.6070    8.9850   29.0260 C   0  0  0  0  0  0  0  0  0  0  0  0
    6.7290   10.5560   30.4470 C   0  0  0  0  0  0  0  0  0  0  0  0
    7.3120   11.9140   30.6890 C   0  0  0  0  0  0  0  0  0  0  0  0
    7.2880   12.8870   29.7110 C   0  0  0  0  0  0  0  0  0  0  0  0
    6.6770   12.4960   28.4710 C   0  0  0  0  0  0  0  0  0  0  0  0
    6.6410   13.4250   27.5060 F   0  0  0  0  0  0  0  0  0  0  0  0
    8.2260    9.9480   24.5290 N   0  0  0  0  0  0  0  0  0  0  0  0
    9.2130   10.5450   23.7720 C   0  0  0  0  0  0  0  0  0  0  0  0
  1  2  1  0
  2  3  2  0
  2  4  1  0
  4  5  1  0
  5  6  2  0
  6  7  1  0
  7  8  2  0
  8  9  1  0
  9 10  1  0
 10 11  1  0
 11 12  2  0
 12 13  1  0
 12 14  1  0
 14 15  2  0
 15 16  1  0
 16 17  2  0
 17 18  1  0
  8 19  1  0
 19 20  2  0
 20  5  1  0
 17 11  1  0
A    1
 C1 
A    2
 C2 
A    3
 O1 
A    4
 N1 
A    5
 C3 
A    6
 C4 
A    7
 C5 
A    8
 C6 
A    9
 N2 
A   10
 C7 
A   11
 C8 
A   12
 C9 
A   13
 C10
A   14
 C11
A   15
 C12
A   16
 C13
A   17
 C14
A   18
 F1 
A   19
 N3 
A   20
 C15
M  END
>  <similarity>  (91) 
1.0

>  <smiles>  (91) 
CC(=O)Nc1ccc(NCc2c(C)cccc2F)nc1

>  <cmpd_id>  (91) 
ENAMINE:PV-002988319159

>  <used_subnode>  (91) 
NCc1ccccc1

>  <used_synthon>  (91) 
CC(=O)N[Xe]

>  <ref_subnode>  (91) 
NCc1ccccc1

>  <ref_synthon>  (91) 
N#CCC(=O)N[Xe]

>  <fragmentA>  (91) 
x0365_0A

>  <fragmentB>  (91) 
x0310_0A

>  <HA>  (91) 
20

>  <HBD>  (91) 
2

>  <HBA>  (91) 
3

>  <MW>  (91) 
273.127740352

>  <TPSA>  (91) 
54.02

>  <LogP>  (91) 
3.0996200000000016

>  <RBs>  (91) 
4

>  <G_bound>  (91) 
-8.458413099336509

>  <G_unbound>  (91) 
0.5378614445504055

>  <deltaG>  (91) 
-8.996274543886914

>  <comRMSD>  (91) 
0.1613473193423544

>  <substructure_overlap_check>  (91) 
True

>  <sucos>  (91) 
0.6722999572774091

>  <interactions>  (91) 
Hydrophobic_GLU-106,Hydrophobic_PRO-107,Hydrophobic_HIS-21,HBDonor_SER-105,HBDonor_SER-125

>  <total_num_ints>  (91) 
5

>  <total_num_ints_nonhyd>  (91) 
2

>  <num_uniq_frag_ints>  (91) 
6

>  <num_repl_uniq_ints>  (91) 
5

>  <num_uniq_ints_lost>  (91) 
1

>  <num_new_uniq_ints>  (91) 
0

>  <int_check>  (91) 
True

>  <original SMILES>  (91) 
CC(=O)Nc1ccc(NCc2c(C)cccc2F)nc1

>  <original_name>  (91) 
x0365_0A-x0310_0A_2896_B1X_rgrp-1

>  <ref_mols>  (91) 
Ax0365a,Ax0310a

>  <ref_pdb>  (91) 
Ax0310a

>  <rationale>  (91) 
FragNet: 1 round bioisosteric merging incl NCc1ccccc1 and CC(=O)N[Xe] replacing N#CCC(=O)N[Xe]

$$$$
x0450_1A-x0310_0A_278_B1X
     RDKit          3D

 21 22  0  0  0  0  0  0  0  0999 V2000
   12.0680   13.8980   22.6170 C   0  0  0  0  0  0  0  0  0  0  0  0
   11.0160   13.4990   23.6210 C   0  0  0  0  0  0  0  0  0  0  0  0
   10.9380   14.0760   24.6940 O   0  0  0  0  0  0  0  0  0  0  0  0
   10.2060   12.4710   23.2210 N   0  0  0  0  0  0  0  0  0  0  0  0
    9.2210   11.8790   24.0350 C   0  0  0  0  0  0  0  0  0  0  0  0
    8.3400   12.6090   25.0520 C   0  0  0  0  0  0  0  0  0  0  0  0
    7.3700   11.7970   25.8260 C   0  0  0  0  0  0  0  0  0  0  0  0
    6.4860   12.3920   26.8590 C   0  0  0  0  0  0  0  0  0  0  0  0
    6.7920   12.1860   28.0360 O   0  0  0  0  0  0  0  0  0  0  0  0
    5.3820   13.1360   26.5050 N   0  0  0  0  0  0  0  0  0  0  0  0
    5.2410   13.8260   25.2300 C   0  0  0  0  0  0  0  0  0  0  0  0
    4.5850   13.6380   27.6250 C   0  0  0  0  0  0  0  0  0  0  0  0
    3.3120   13.9540   27.1600 C   0  0  0  0  0  0  0  0  0  0  0  0
    2.2440   13.0790   27.1310 C   0  0  0  0  0  0  0  0  0  0  0  0
    1.1440   13.7260   26.6080 C   0  0  0  0  0  0  0  0  0  0  0  0
    1.6340   14.9820   26.3510 N   0  0  0  0  0  0  0  0  0  0  0  0
    2.9420   15.1470   26.6780 N   0  0  0  0  0  0  0  0  0  0  0  0
    7.2850   10.4310   25.5930 C   0  0  0  0  0  0  0  0  0  0  0  0
    8.1130    9.8100   24.6470 C   0  0  0  0  0  0  0  0  0  0  0  0
    9.0440   10.5110   23.9020 C   0  0  0  0  0  0  0  0  0  0  0  0
    9.8010    9.8420   23.0230 F   0  0  0  0  0  0  0  0  0  0  0  0
  1  2  1  0
  2  3  2  0
  2  4  1  0
  4  5  1  0
  5  6  2  0
  6  7  1  0
  7  8  1  0
  8  9  2  0
  8 10  1  0
 10 11  1  0
 10 12  1  0
 12 13  1  0
 13 14  1  0
 14 15  2  0
 15 16  1  0
 16 17  1  0
  7 18  2  0
 18 19  1  0
 19 20  2  0
 20 21  1  0
 20  5  1  0
 17 13  2  0
A    1
 C1 
A    2
 C2 
A    3
 O1 
A    4
 N1 
A    5
 C3 
A    6
 C4 
A    7
 C5 
A    8
 C6 
A    9
 O2 
A   10
 N2 
A   11
 C7 
A   12
 C8 
A   13
 C9 
A   14
 C10
A   15
 C11
A   16
 N3 
A   17
 N4 
A   18
 C12
A   19
 C13
A   20
 C14
A   21
 F1 
M  END
>  <similarity>  (92) 
1.0

>  <smiles>  (92) 
CC(=O)Nc1cc(C(=O)N(C)Cc2cc[nH]n2)ccc1F

>  <cmpd_id>  (92) 
ENAMINE:Z1183559804

>  <used_subnode>  (92) 
CN(C)C(=O)c1ccccc1

>  <used_synthon>  (92) 
CC(=O)N[Xe]

>  <ref_subnode>  (92) 
CN(C)C(=O)c1ccccc1

>  <ref_synthon>  (92) 
N#CCC(=O)N[Xe]

>  <fragmentA>  (92) 
x0450_1A

>  <fragmentB>  (92) 
x0310_0A

>  <HA>  (92) 
21

>  <HBD>  (92) 
2

>  <HBA>  (92) 
3

>  <MW>  (92) 
290.11790394

>  <TPSA>  (92) 
78.09

>  <LogP>  (92) 
1.7793999999999999

>  <RBs>  (92) 
4

>  <G_bound>  (92) 
-7.997108244175975

>  <G_unbound>  (92) 
0.2788965291035021

>  <deltaG>  (92) 
-8.276004773279478

>  <comRMSD>  (92) 
0.410609387865167

>  <substructure_overlap_check>  (92) 
True

>  <sucos>  (92) 
0.6775565638539003

>  <interactions>  (92) 
HBDonor_GLU-85,Hydrophobic_PRO-107,Hydrophobic_HIS-21,HBDonor_SER-125

>  <total_num_ints>  (92) 
4

>  <total_num_ints_nonhyd>  (92) 
2

>  <num_uniq_frag_ints>  (92) 
4

>  <num_repl_uniq_ints>  (92) 
3

>  <num_uniq_ints_lost>  (92) 
1

>  <num_new_uniq_ints>  (92) 
1

>  <int_check>  (92) 
True

>  <original SMILES>  (92) 
CC(=O)Nc1cc(C(=O)N(C)Cc2cc[nH]n2)ccc1F

>  <original_name>  (92) 
x0450_1A-x0310_0A_278_B1X

>  <ref_mols>  (92) 
Ax0450a,Ax0310a

>  <ref_pdb>  (92) 
Ax0310a

>  <rationale>  (92) 
FragNet: 1 round bioisosteric merging incl CN(C)C(=O)c1ccccc1 and CC(=O)N[Xe] replacing N#CCC(=O)N[Xe]

$$$$
